
     RDKit          3D

 27 31  0  0  0  0  0  0  0  0999 V2000
    9.1840    1.4710   21.1570 O   0  0  0  0  0  0  0  0  0  0  0  0
    8.8480    0.4150   21.6560 C   0  0  0  0  0  0  0  0  0  0  0  0
    9.4010   -0.1960   22.9640 C   0  0  2  0  0  0  0  0  0  0  0  0
    8.7450    0.5900   24.1220 C   0  0  0  0  0  0  0  0  0  0  0  0
    9.7010    0.8420   25.2690 C   0  0  0  0  0  0  0  0  0  0  0  0
   10.8960    1.4880   24.8130 O   0  0  0  0  0  0  0  0  0  0  0  0
   10.9230   -0.1250   22.9950 C   0  0  0  0  0  0  0  0  0  0  0  0
   11.5710    0.7620   23.8650 C   0  0  0  0  0  0  0  0  0  0  0  0
   12.9420    0.9540   23.8270 C   0  0  0  0  0  0  0  0  0  0  0  0
   13.6980    0.2540   22.9080 C   0  0  0  0  0  0  0  0  0  0  0  0
   11.7080   -0.8590   22.1060 C   0  0  0  0  0  0  0  0  0  0  0  0
   13.0760   -0.6390   22.0640 C   0  0  0  0  0  0  0  0  0  0  0  0
   14.0260   -1.4650   20.8610 Cl  0  0  0  0  0  0  0  0  0  0  0  0
    7.9180   -0.4950   21.1530 N   0  0  0  0  0  0  0  0  0  0  0  0
    7.9280   -1.6870   21.8890 C   0  0  0  0  0  0  0  0  0  0  0  0
    7.1970   -2.6470   21.6950 O   0  0  0  0  0  0  0  0  0  0  0  0
    8.8510   -1.5450   22.8720 N   0  0  0  0  0  0  0  0  0  0  0  0
    6.9790   -0.1850   20.0980 C   0  0  0  0  0  0  0  0  0  0  0  0
    5.7970    0.5530   20.4140 C   0  0  0  0  0  0  0  0  0  0  0  0
    5.3070    0.7530   21.7320 C   0  0  0  0  0  0  0  0  0  0  0  0
    4.1850    1.4970   21.9600 C   0  0  0  0  0  0  0  0  0  0  0  0
    3.4930    2.0770   20.9050 C   0  0  0  0  0  0  0  0  0  0  0  0
    3.9150    1.9060   19.6180 C   0  0  0  0  0  0  0  0  0  0  0  0
    5.0750    1.1400   19.3360 C   0  0  0  0  0  0  0  0  0  0  0  0
    5.5710    0.9410   18.0220 C   0  0  0  0  0  0  0  0  0  0  0  0
    6.6750    0.2640   17.7390 N   0  0  0  0  0  0  0  0  0  0  0  0
    7.3490   -0.2790   18.7620 C   0  0  0  0  0  0  0  0  0  0  0  0
  2  1  2  0
  3  2  1  0
  3  4  1  1
  5  4  1  0
  6  5  1  0
  7  3  1  0
  8  6  1  0
  8  7  2  0
  9  8  1  0
 10  9  2  0
 11  7  1  0
 12 11  2  0
 12 10  1  0
 13 12  1  0
 14  2  1  0
 15 14  1  0
 16 15  2  0
 17 15  1  0
 17  3  1  0
 18 14  1  0
 19 18  1  0
 20 19  2  0
 21 20  1  0
 22 21  2  0
 23 22  1  0
 24 23  2  0
 24 19  1  0
 25 24  1  0
 26 25  2  0
 27 26  1  0
 27 18  2  0
M  END
