
     RDKit          3D

 21 23  0  0  0  0  0  0  0  0999 V2000
    5.3920   -3.1310   21.2420 O   0  0  0  0  0  0  0  0  0  0  0  0
    5.6430   -2.6520   22.3440 C   0  0  0  0  0  0  0  0  0  0  0  0
    4.9990   -3.0420   23.4380 N   0  0  0  0  0  0  0  0  0  0  0  0
    5.4760   -2.9120   24.8180 C   0  0  0  0  0  0  0  0  0  0  0  0
    6.2640   -1.6220   24.9710 C   0  0  0  0  0  0  0  0  0  0  0  0
    6.7020   -1.5960   22.5050 C   0  0  0  0  0  0  0  0  0  0  0  0
    7.3390   -1.4990   23.8940 C   0  0  2  0  0  0  0  0  0  0  0  0
    8.3830   -2.5090   24.0700 N   0  0  0  0  0  0  0  0  0  0  0  0
    9.5580   -2.2230   24.6370 C   0  0  0  0  0  0  0  0  0  0  0  0
    9.8620   -1.0880   24.9860 O   0  0  0  0  0  0  0  0  0  0  0  0
   10.4820   -3.4210   24.8640 C   0  0  2  0  0  0  0  0  0  0  0  0
   10.1590   -4.0410   26.2380 C   0  0  0  0  0  0  0  0  0  0  0  0
   11.3750   -4.7190   26.8090 C   0  0  0  0  0  0  0  0  0  0  0  0
   12.5030   -3.8320   26.8960 O   0  0  0  0  0  0  0  0  0  0  0  0
   11.9230   -2.9720   24.7030 C   0  0  0  0  0  0  0  0  0  0  0  0
   12.3720   -2.3400   23.5440 C   0  0  0  0  0  0  0  0  0  0  0  0
   13.7000   -1.9810   23.4290 C   0  0  0  0  0  0  0  0  0  0  0  0
   14.2560   -1.2700   21.9360 Cl  0  0  0  0  0  0  0  0  0  0  0  0
   12.8490   -3.2210   25.7200 C   0  0  0  0  0  0  0  0  0  0  0  0
   14.1790   -2.8460   25.5990 C   0  0  0  0  0  0  0  0  0  0  0  0
   14.6050   -2.2140   24.4440 C   0  0  0  0  0  0  0  0  0  0  0  0
  2  1  2  0
  3  2  1  0
  4  3  1  0
  5  4  1  0
  6  2  1  0
  7  6  1  0
  7  5  1  0
  7  8  1  1
  9  8  1  0
 10  9  2  0
 11  9  1  1
 12 11  1  0
 13 12  1  0
 14 13  1  0
 15 11  1  0
 16 15  1  0
 17 16  2  0
 18 17  1  0
 19 15  2  0
 19 14  1  0
 20 19  1  0
 21 20  2  0
 21 17  1  0
M  END
