
     RDKit          3D

 21 23  0  0  0  0  0  0  0  0999 V2000
   13.8790   -1.7470   21.1630 Cl  0  0  0  0  0  0  0  0  0  0  0  0
   12.7600   -0.9220   22.2080 C   0  0  0  0  0  0  0  0  0  0  0  0
   13.2390    0.0000   23.1150 C   0  0  0  0  0  0  0  0  0  0  0  0
   12.3600    0.5900   24.0050 C   0  0  0  0  0  0  0  0  0  0  0  0
   11.4210   -1.2480   22.1420 C   0  0  0  0  0  0  0  0  0  0  0  0
   10.5150   -0.6310   23.0030 C   0  0  0  0  0  0  0  0  0  0  0  0
   11.0100    0.2760   23.9450 C   0  0  0  0  0  0  0  0  0  0  0  0
   10.2090    0.8940   24.8780 O   0  0  0  0  0  0  0  0  0  0  0  0
    8.8110    1.0050   24.5320 C   0  0  0  0  0  0  0  0  0  0  0  0
    8.2360   -0.3060   24.0600 C   0  0  0  0  0  0  0  0  0  0  0  0
    9.0200   -0.8200   22.8370 C   0  0  1  0  0  0  0  0  0  0  0  0
    8.5840   -0.0550   21.5870 C   0  0  0  0  0  0  0  0  0  0  0  0
    9.2180    0.9020   21.1580 O   0  0  0  0  0  0  0  0  0  0  0  0
    7.4490   -0.5090   21.0170 N   0  0  0  0  0  0  0  0  0  0  0  0
    6.7820    0.0850   19.9200 C   0  0  0  0  0  0  0  0  0  0  0  0
    5.6290    0.8560   20.1550 C   0  0  0  0  0  0  0  0  0  0  0  0
    5.1200    1.1260   21.5480 C   0  0  0  0  0  0  0  0  0  0  0  0
    7.2400   -0.0510   18.6080 C   0  0  0  0  0  0  0  0  0  0  0  0
    6.6300    0.5010   17.5550 N   0  0  0  0  0  0  0  0  0  0  0  0
    5.5240    1.2190   17.7900 C   0  0  0  0  0  0  0  0  0  0  0  0
    4.9980    1.4170   19.0500 C   0  0  0  0  0  0  0  0  0  0  0  0
  2  1  1  0
  3  2  2  0
  4  3  1  0
  5  2  1  0
  6  5  2  0
  7  6  1  0
  7  4  2  0
  8  7  1  0
  9  8  1  0
 10  9  1  0
 11 10  1  0
 11  6  1  0
 11 12  1  6
 13 12  2  0
 14 12  1  0
 15 14  1  0
 16 15  2  0
 17 16  1  0
 18 15  1  0
 19 18  2  0
 20 19  1  0
 21 20  2  0
 21 16  1  0
M  END
