
     RDKit          3D

 27 31  0  0  0  0  0  0  0  0999 V2000
    9.0810    1.1820   21.3040 O   0  0  0  0  0  0  0  0  0  0  0  0
    8.6190    0.1620   21.7780 C   0  0  0  0  0  0  0  0  0  0  0  0
    9.0760   -0.5290   23.0680 C   0  0  2  0  0  0  0  0  0  0  0  0
    8.4800    0.2600   24.2600 C   0  0  0  0  0  0  0  0  0  0  0  0
    9.2910    0.0830   25.5250 C   0  0  0  0  0  0  0  0  0  0  0  0
   10.6570    0.4750   25.3210 O   0  0  0  0  0  0  0  0  0  0  0  0
   10.6040   -0.6400   23.1620 C   0  0  1  0  0  0  0  0  0  0  0  0
   11.2800   -0.2150   24.3100 C   0  0  0  0  0  0  0  0  0  0  0  0
   12.6300   -0.4600   24.4940 C   0  0  0  0  0  0  0  0  0  0  0  0
   13.3390   -1.1180   23.5080 C   0  0  0  0  0  0  0  0  0  0  0  0
   11.3400   -1.2760   22.1630 C   0  0  0  0  0  0  0  0  0  0  0  0
   12.6950   -1.4940   22.3530 C   0  0  1  0  0  0  0  0  0  0  0  0
   13.6230   -2.2020   21.0610 Cl  0  0  0  0  0  0  0  0  0  0  0  0
    7.5660   -0.5830   21.2380 N   0  0  0  0  0  0  0  0  0  0  0  0
    7.3510   -1.7840   21.9140 C   0  0  0  0  0  0  0  0  0  0  0  0
    6.4410   -2.5610   21.6610 O   0  0  0  0  0  0  0  0  0  0  0  0
    8.4110   -1.9190   22.9700 C   0  0  0  0  0  0  0  0  0  0  0  0
    6.7430   -0.1260   20.1430 C   0  0  1  0  0  0  0  0  0  0  0  0
    5.6200    0.7090   20.4170 C   0  0  0  0  0  0  0  0  0  0  0  0
    5.0790    0.9250   21.7120 C   0  0  0  0  0  0  0  0  0  0  0  0
    3.9850    1.7240   21.8920 C   0  0  0  0  0  0  0  0  0  0  0  0
    3.3780    2.3510   20.8100 C   0  0  0  0  0  0  0  0  0  0  0  0
    3.8630    2.1780   19.5440 C   0  0  0  0  0  0  0  0  0  0  0  0
    4.9930    1.3550   19.3120 C   0  0  0  0  0  0  0  0  0  0  0  0
    5.5380    1.1310   18.0220 C   0  0  0  0  0  0  0  0  0  0  0  0
    6.5940    0.3620   17.7800 N   0  0  0  0  0  0  0  0  0  0  0  0
    7.1690   -0.2470   18.8250 C   0  0  0  0  0  0  0  0  0  0  0  0
  2  1  1  0
  3  2  1  0
  3  4  1  1
  5  4  1  0
  6  5  1  0
  7  3  1  0
  8  7  1  0
  8  6  1  0
  9  8  1  0
 10  9  1  0
  7 11  1  1
 12 11  1  0
 12 10  1  0
 12 13  1  6
 14  2  1  0
 15 14  1  0
 16 15  1  0
 17 15  1  0
 17  3  1  0
 18 14  1  1
 19 18  1  0
 20 19  1  0
 21 20  1  0
 22 21  1  0
 23 22  1  0
 24 23  1  0
 24 19  1  0
 25 24  1  0
 26 25  1  0
 27 26  1  0
 27 18  1  0
M  END
$$$$
