
     RDKit          3D

 30 34  0  0  0  0  0  0  0  0999 V2000
    8.4790    1.1040   21.3270 O   0  0  0  0  0  0  0  0  0  0  0  0
    8.2080   -0.0940   21.3520 C   0  0  1  0  0  0  0  0  0  0  0  0
    7.5830   -0.7260   20.3390 N   0  0  0  0  0  0  0  0  0  0  0  0
    6.5630   -0.2700   19.4810 C   0  0  1  0  0  0  0  0  0  0  0  0
    5.5590    0.6400   19.9500 C   0  0  2  0  0  0  0  0  0  0  0  0
    5.1520    0.7330   21.3070 C   0  0  0  0  0  0  0  0  0  0  0  0
    4.0810    1.4980   21.6710 C   0  0  0  0  0  0  0  0  0  0  0  0
    3.3710    2.2180   20.7240 C   0  0  0  0  0  0  0  0  0  0  0  0
    3.7230    2.1700   19.4060 C   0  0  0  0  0  0  0  0  0  0  0  0
    4.8140    1.3720   18.9800 C   0  0  2  0  0  0  0  0  0  0  0  0
    5.1200    1.1580   17.6170 C   0  0  0  0  0  0  0  0  0  0  0  0
    6.0210    0.2930   17.1850 N   0  0  0  0  0  0  0  0  0  0  0  0
    6.6980   -0.4050   18.1030 C   0  0  0  0  0  0  0  0  0  0  0  0
    8.6590   -1.0060   22.4940 C   0  0  1  0  0  0  0  0  0  0  0  0
   10.0610   -0.6250   22.9280 C   0  0  2  0  0  0  0  0  0  0  0  0
   10.2590    0.3410   23.9220 C   0  0  0  0  0  0  0  0  0  0  0  0
   11.5320    0.8520   24.1670 C   0  0  0  0  0  0  0  0  0  0  0  0
   12.6150    0.3810   23.4420 C   0  0  0  0  0  0  0  0  0  0  0  0
   11.1650   -1.1220   22.2420 C   0  0  0  0  0  0  0  0  0  0  0  0
   12.4190   -0.6100   22.5060 C   0  0  0  0  0  0  0  0  0  0  0  0
   13.7870   -1.2400   21.6280 Cl  0  0  0  0  0  0  0  0  0  0  0  0
    7.6790   -0.9120   23.6740 C   0  0  0  0  0  0  0  0  0  0  0  0
    7.7700    0.4480   24.3680 C   0  0  0  0  0  0  0  0  0  0  0  0
    9.1500    0.7890   24.7300 N   0  0  0  0  0  0  0  0  0  0  0  0
    9.3440    1.4110   26.0270 C   0  0  0  0  0  0  0  0  0  0  0  0
    9.6330    0.4260   27.1150 C   0  0  0  0  0  0  0  0  0  0  0  0
    9.8320    0.7800   28.4200 N   0  0  0  0  0  0  0  0  0  0  0  0
   10.0150   -0.3710   29.1310 C   0  0  0  0  0  0  0  0  0  0  0  0
    9.9200   -1.4020   28.2230 C   0  0  0  0  0  0  0  0  0  0  0  0
    9.6860   -0.9040   26.9600 N   0  0  0  0  0  0  0  0  0  0  0  0
  2  1  1  6
  3  2  1  0
  4  3  1  6
  5  4  1  0
  5  6  1  6
  7  6  1  0
  8  7  1  0
  9  8  1  0
 10  9  1  6
 10  5  1  0
 11 10  1  0
 12 11  1  0
 13 12  1  0
 13  4  1  0
 14  2  1  0
 15 14  1  0
 16 15  1  0
 17 16  1  0
 18 17  1  0
 15 19  1  6
 20 19  1  0
 20 18  1  0
 21 20  1  0
 14 22  1  1
 23 22  1  0
 24 23  1  0
 24 16  1  0
 25 24  1  0
 26 25  1  0
 27 26  1  0
 28 27  1  0
 29 28  1  0
 30 26  1  0
 30 29  1  0
M  END
$$$$
