
     RDKit          3D

 26 29  0  0  0  0  0  0  0  0999 V2000
    9.3860    1.1940   21.1410 O   0  0  0  0  0  0  0  0  0  0  0  0
    8.9170    0.1530   21.5830 C   0  0  0  0  0  0  0  0  0  0  0  0
    9.5740   -0.5680   22.7830 C   0  0  1  0  0  0  0  0  0  0  0  0
   11.0690   -0.2690   22.8120 C   0  0  0  0  0  0  0  0  0  0  0  0
   11.9110   -0.9310   21.9250 C   0  0  0  0  0  0  0  0  0  0  0  0
   13.2630   -0.6560   21.9330 C   0  0  0  0  0  0  0  0  0  0  0  0
   14.2990   -1.5250   20.8370 Cl  0  0  0  0  0  0  0  0  0  0  0  0
   13.8160    0.2620   22.8040 C   0  0  0  0  0  0  0  0  0  0  0  0
   13.0010    0.9010   23.7200 C   0  0  0  0  0  0  0  0  0  0  0  0
   11.6410    0.6390   23.7190 C   0  0  0  0  0  0  0  0  0  0  0  0
   10.9010    1.3870   24.6020 O   0  0  0  0  0  0  0  0  0  0  0  0
    9.4560    1.3320   24.4590 C   0  0  0  0  0  0  0  0  0  0  0  0
    8.9360   -0.0400   24.0890 C   0  0  0  0  0  0  0  0  0  0  0  0
    9.3720   -2.1010   22.6960 C   0  0  0  0  0  0  0  0  0  0  0  0
    8.0160   -2.5620   22.9930 N   0  0  0  0  0  0  0  0  0  0  0  0
    7.9170   -0.4520   20.9320 N   0  0  0  0  0  0  0  0  0  0  0  0
    6.9720   -0.0500   19.9880 C   0  0  0  0  0  0  0  0  0  0  0  0
    5.9020    0.8440   20.3100 C   0  0  0  0  0  0  0  0  0  0  0  0
    5.4460    1.0870   21.6330 C   0  0  0  0  0  0  0  0  0  0  0  0
    4.3490    1.8710   21.8680 C   0  0  0  0  0  0  0  0  0  0  0  0
    3.6490    2.4420   20.8160 C   0  0  0  0  0  0  0  0  0  0  0  0
    4.0550    2.2510   19.5240 C   0  0  0  0  0  0  0  0  0  0  0  0
    5.1910    1.4550   19.2360 C   0  0  0  0  0  0  0  0  0  0  0  0
    5.6300    1.1860   17.9180 C   0  0  0  0  0  0  0  0  0  0  0  0
    6.6440    0.3880   17.6200 N   0  0  0  0  0  0  0  0  0  0  0  0
    7.2650   -0.2240   18.6370 C   0  0  0  0  0  0  0  0  0  0  0  0
  2  1  2  0
  3  2  1  0
  4  3  1  0
  5  4  2  0
  6  5  1  0
  7  6  1  0
  8  6  2  0
  9  8  1  0
 10  9  2  0
 10  4  1  0
 11 10  1  0
 12 11  1  0
 13 12  1  0
 13  3  1  0
  3 14  1  6
 15 14  1  0
 16  2  1  0
 17 16  1  0
 18 17  1  0
 19 18  2  0
 20 19  1  0
 21 20  2  0
 22 21  1  0
 23 22  2  0
 23 18  1  0
 24 23  1  0
 25 24  2  0
 26 25  1  0
 26 17  2  0
M  END
