
     RDKit          3D

 37 40  0  0  0  0  0  0  0  0999 V2000
    5.4050   -2.0250   21.3030 O   0  0  0  0  0  0  0  0  0  0  0  0
    6.5560   -2.2120   21.6600 C   0  0  0  0  0  0  0  0  0  0  0  0
    6.9080   -3.6140   22.0570 C   0  0  0  0  0  0  0  0  0  0  0  0
    7.9730   -3.9810   22.8290 O   0  0  0  0  0  0  0  0  0  0  0  0
    7.8550   -5.3440   23.0180 C   0  0  0  0  0  0  0  0  0  0  0  0
    6.7810   -5.8120   22.4020 C   0  0  0  0  0  0  0  0  0  0  0  0
    6.1570   -4.7020   21.7700 C   0  0  0  0  0  0  0  0  0  0  0  0
    7.4650   -1.2120   21.7730 N   0  0  0  0  0  0  0  0  0  0  0  0
    8.7650   -1.3720   22.3680 C   0  0  0  0  0  0  0  0  0  0  0  0
    8.9260   -1.2440   23.7460 C   0  0  0  0  0  0  0  0  0  0  0  0
   10.1880   -1.2990   24.3070 C   0  0  0  0  0  0  0  0  0  0  0  0
    9.8900   -1.5770   21.5720 C   0  0  0  0  0  0  0  0  0  0  0  0
   11.1500   -1.6410   22.1470 C   0  0  0  0  0  0  0  0  0  0  0  0
   11.3190   -1.5120   23.5250 C   0  0  0  0  0  0  0  0  0  0  0  0
   12.6920   -1.6410   24.2020 C   0  0  2  0  0  0  0  0  0  0  0  0
   12.6830   -2.8400   25.1580 C   0  0  0  0  0  0  0  0  0  0  0  0
   12.9930   -0.3750   25.0180 C   0  0  0  0  0  0  0  0  0  0  0  0
   13.8450   -1.8420   23.2000 C   0  0  0  0  0  0  0  0  0  0  0  0
    7.0170    0.1690   21.4670 C   0  0  2  0  0  0  0  0  0  0  0  0
    6.3650    0.3060   20.0990 C   0  0  0  0  0  0  0  0  0  0  0  0
    6.9860   -0.1460   18.9400 C   0  0  0  0  0  0  0  0  0  0  0  0
    6.5820    0.1630   17.7000 N   0  0  0  0  0  0  0  0  0  0  0  0
    5.4960    0.9350   17.5830 C   0  0  0  0  0  0  0  0  0  0  0  0
    4.7870    1.4140   18.6680 C   0  0  0  0  0  0  0  0  0  0  0  0
    5.2310    1.0850   19.9370 C   0  0  0  0  0  0  0  0  0  0  0  0
    8.1090    1.2340   21.6690 C   0  0  0  0  0  0  0  0  0  0  0  0
    9.0110    1.3720   20.8530 O   0  0  0  0  0  0  0  0  0  0  0  0
    7.9660    1.9960   22.7520 N   0  0  0  0  0  0  0  0  0  0  0  0
    8.9280    3.0370   23.0930 C   0  0  0  0  0  0  0  0  0  0  0  0
   10.2850    2.4460   23.4790 C   0  0  0  0  0  0  0  0  0  0  0  0
   11.3880    3.4770   23.5410 C   0  0  0  0  0  0  0  0  0  0  0  0
   12.1540    3.7520   22.4130 C   0  0  0  0  0  0  0  0  0  0  0  0
   13.1280    4.7180   22.4890 C   0  0  0  0  0  0  0  0  0  0  0  0
   13.8260    5.0150   21.3630 F   0  0  0  0  0  0  0  0  0  0  0  0
   13.4030    5.4210   23.6300 C   0  0  0  0  0  0  0  0  0  0  0  0
   12.6440    5.1430   24.7560 C   0  0  0  0  0  0  0  0  0  0  0  0
   11.6460    4.1800   24.7120 C   0  0  0  0  0  0  0  0  0  0  0  0
  2  1  2  0
  3  2  1  0
  4  3  1  0
  5  4  1  0
  6  5  2  0
  7  6  1  0
  7  3  2  0
  8  2  1  0
  9  8  1  0
 10  9  2  0
 11 10  1  0
 12  9  1  0
 13 12  2  0
 14 11  2  0
 14 13  1  0
 15 14  1  0
 15 16  1  1
 17 15  1  0
 18 15  1  0
 19  8  1  0
 20 19  1  0
 21 20  2  0
 22 21  1  0
 23 22  2  0
 24 23  1  0
 25 24  2  0
 25 20  1  0
 19 26  1  6
 27 26  2  0
 28 26  1  0
 29 28  1  0
 30 29  1  0
 31 30  1  0
 32 31  2  0
 33 32  1  0
 34 33  1  0
 35 33  2  0
 36 35  1  0
 37 36  2  0
 37 31  1  0
M  END
