
     RDKit          3D

 31 34  0  0  0  0  0  0  0  0999 V2000
   14.0250   -1.6200   21.4300 Cl  0  0  0  0  0  0  0  0  0  0  0  0
   12.8530   -0.7930   22.4220 C   0  0  0  0  0  0  0  0  0  0  0  0
   11.5190   -1.1470   22.3300 C   0  0  0  0  0  0  0  0  0  0  0  0
   13.2790    0.1970   23.2720 C   0  0  0  0  0  0  0  0  0  0  0  0
   12.3530    0.8290   24.0790 C   0  0  0  0  0  0  0  0  0  0  0  0
   11.0000    0.5060   24.0180 C   0  0  0  0  0  0  0  0  0  0  0  0
   10.0710    1.2330   24.9650 C   0  0  0  0  0  0  0  0  0  0  0  0
    8.6510    0.9710   24.7000 N   0  0  0  0  0  0  0  0  0  0  0  0
    7.4470    1.9350   25.1300 S   0  0  1  0  0  0  0  0  0  0  0  0
    6.2420    1.3880   24.6090 O   0  0  0  0  0  0  0  0  0  0  0  0
    7.5920    2.1640   26.5250 O   0  0  0  0  0  0  0  0  0  0  0  0
    7.7700    3.3030   24.3620 N   0  0  0  0  0  0  0  0  0  0  0  0
    8.2880    4.4280   25.1470 C   0  0  0  0  0  0  0  0  0  0  0  0
    7.5510    3.5800   22.9300 C   0  0  0  0  0  0  0  0  0  0  0  0
    6.3220    4.4210   22.6880 C   0  0  0  0  0  0  0  0  0  0  0  0
   10.5730   -0.4790   23.1120 C   0  0  0  0  0  0  0  0  0  0  0  0
    9.0950   -0.7750   22.9500 C   0  0  1  0  0  0  0  0  0  0  0  0
    8.3260   -0.3810   24.2100 C   0  0  0  0  0  0  0  0  0  0  0  0
    8.5690   -0.0340   21.7170 C   0  0  0  0  0  0  0  0  0  0  0  0
    9.1320    0.9640   21.2590 O   0  0  0  0  0  0  0  0  0  0  0  0
    7.4180   -0.5400   21.2000 N   0  0  0  0  0  0  0  0  0  0  0  0
    6.6790   -0.0370   20.1040 C   0  0  0  0  0  0  0  0  0  0  0  0
    5.5430    0.7980   20.3630 C   0  0  0  0  0  0  0  0  0  0  0  0
    4.9970    1.0110   21.6560 C   0  0  0  0  0  0  0  0  0  0  0  0
    3.8870    1.7880   21.8320 C   0  0  0  0  0  0  0  0  0  0  0  0
    3.2730    2.4010   20.7470 C   0  0  0  0  0  0  0  0  0  0  0  0
    3.7640    2.2320   19.4830 C   0  0  0  0  0  0  0  0  0  0  0  0
    4.9020    1.4200   19.2530 C   0  0  0  0  0  0  0  0  0  0  0  0
    5.4140    1.1520   17.9590 C   0  0  0  0  0  0  0  0  0  0  0  0
    6.4490    0.3580   17.7180 N   0  0  0  0  0  0  0  0  0  0  0  0
    7.0560   -0.2100   18.7710 C   0  0  0  0  0  0  0  0  0  0  0  0
  2  1  1  0
  3  2  2  0
  4  2  1  0
  5  4  2  0
  6  5  1  0
  7  6  1  0
  8  7  1  0
  9  8  1  0
 10  9  2  0
 11  9  2  0
  9 12  1  6
 13 12  1  0
 14 12  1  0
 15 14  1  0
 16  6  2  0
 16  3  1  0
 17 16  1  0
 18 17  1  0
 18  8  1  0
 17 19  1  6
 20 19  2  0
 21 19  1  0
 22 21  1  0
 23 22  1  0
 24 23  2  0
 25 24  1  0
 26 25  2  0
 27 26  1  0
 28 27  2  0
 28 23  1  0
 29 28  1  0
 30 29  2  0
 31 30  1  0
 31 22  2  0
M  END
