
     RDKit          3D

 20 22  0  0  0  0  0  0  0  0999 V2000
    9.2460    1.0260   21.2500 O   0  0  0  0  0  0  0  0  0  0  0  0
    8.7530    0.0440   21.8000 C   0  0  0  0  0  0  0  0  0  0  0  0
    9.3000   -0.4990   23.1060 C   0  0  0  0  0  0  0  0  0  0  0  0
   10.7990   -0.3780   23.2740 C   0  0  0  0  0  0  0  0  0  0  0  0
   11.3390    0.2980   24.3610 C   0  0  0  0  0  0  0  0  0  0  0  0
   12.7120    0.4160   24.5130 C   0  0  0  0  0  0  0  0  0  0  0  0
   13.5690   -0.1460   23.5800 C   0  0  0  0  0  0  0  0  0  0  0  0
   11.6610   -0.9480   22.3420 C   0  0  0  0  0  0  0  0  0  0  0  0
   13.0280   -0.8190   22.5080 C   0  0  0  0  0  0  0  0  0  0  0  0
   14.0920   -1.5070   21.3130 Cl  0  0  0  0  0  0  0  0  0  0  0  0
    7.7040   -0.6360   21.3020 N   0  0  0  0  0  0  0  0  0  0  0  0
    7.0950   -0.2020   20.1250 N   0  0  0  0  0  0  0  0  0  0  0  0
    5.9420    0.5790   20.0610 C   0  0  0  0  0  0  0  0  0  0  0  0
    5.7220    0.7560   18.6940 C   0  0  0  0  0  0  0  0  0  0  0  0
    6.7030    0.0890   17.9520 N   0  0  0  0  0  0  0  0  0  0  0  0
    7.4860   -0.4530   18.8510 C   0  0  0  0  0  0  0  0  0  0  0  0
    5.1940    1.2440   21.0240 C   0  0  0  0  0  0  0  0  0  0  0  0
    4.1850    2.0940   20.5810 C   0  0  0  0  0  0  0  0  0  0  0  0
    3.9330    2.2610   19.2180 C   0  0  0  0  0  0  0  0  0  0  0  0
    4.6950    1.5950   18.2630 C   0  0  0  0  0  0  0  0  0  0  0  0
  2  1  2  0
  3  2  1  0
  4  3  1  0
  5  4  2  0
  6  5  1  0
  7  6  2  0
  8  4  1  0
  9  8  2  0
  9  7  1  0
 10  9  1  0
 11  2  1  0
 12 11  1  0
 13 12  1  0
 14 13  2  0
 15 14  1  0
 16 15  2  0
 16 12  1  0
 17 13  1  0
 18 17  2  0
 19 18  1  0
 20 19  2  0
 20 14  1  0
M  END
