
     RDKit          3D

 37 42  0  0  0  0  0  0  0  0999 V2000
    9.3000    1.3110   20.9000 O   0  0  0  0  0  0  0  0  0  0  0  0
    8.8050    0.3400   21.4540 C   0  0  0  0  0  0  0  0  0  0  0  0
    7.6190   -0.2000   21.0650 N   0  0  0  0  0  0  0  0  0  0  0  0
    6.8110    0.1900   19.9720 C   0  0  0  0  0  0  0  0  0  0  0  0
    5.6580    1.0070   20.2140 C   0  0  0  0  0  0  0  0  0  0  0  0
    5.1750    1.3330   21.5100 C   0  0  0  0  0  0  0  0  0  0  0  0
    4.0860    2.1460   21.6700 C   0  0  0  0  0  0  0  0  0  0  0  0
    3.4260    2.6720   20.5670 C   0  0  0  0  0  0  0  0  0  0  0  0
    3.8450    2.3790   19.3020 C   0  0  0  0  0  0  0  0  0  0  0  0
    4.9650    1.5360   19.0880 C   0  0  0  0  0  0  0  0  0  0  0  0
    5.4390    1.1930   17.7990 C   0  0  0  0  0  0  0  0  0  0  0  0
    6.4830    0.4090   17.5730 N   0  0  0  0  0  0  0  0  0  0  0  0
    7.1380   -0.0710   18.6390 C   0  0  0  0  0  0  0  0  0  0  0  0
    9.4960   -0.3070   22.6790 C   0  0  1  0  0  0  0  0  0  0  0  0
   10.9930    0.0650   22.6920 C   0  0  0  0  0  0  0  0  0  0  0  0
   11.9120   -0.6500   21.9210 C   0  0  0  0  0  0  0  0  0  0  0  0
   13.2460   -0.2810   21.9290 C   0  0  0  0  0  0  0  0  0  0  0  0
   14.3810   -1.1910   20.9620 Cl  0  0  0  0  0  0  0  0  0  0  0  0
   13.7020    0.7910   22.6670 C   0  0  0  0  0  0  0  0  0  0  0  0
   12.8100    1.5010   23.4530 C   0  0  0  0  0  0  0  0  0  0  0  0
   11.4740    1.1290   23.4730 C   0  0  0  0  0  0  0  0  0  0  0  0
   10.6850    1.8260   24.3550 O   0  0  0  0  0  0  0  0  0  0  0  0
    9.2680    1.7750   24.1040 C   0  0  0  0  0  0  0  0  0  0  0  0
    8.7860    0.3570   23.8800 C   0  0  0  0  0  0  0  0  0  0  0  0
    9.3510   -1.8500   22.7260 C   0  0  0  0  0  0  0  0  0  0  0  0
    9.8890   -2.4970   23.9860 C   0  0  0  0  0  0  0  0  0  0  0  0
   10.7180   -1.9600   24.7090 O   0  0  0  0  0  0  0  0  0  0  0  0
    9.4160   -3.7140   24.3190 N   0  0  0  0  0  0  0  0  0  0  0  0
   10.1880   -4.6930   25.1090 C   0  0  1  0  0  0  0  0  0  0  0  0
    9.7790   -4.5050   26.5670 C   0  0  0  0  0  0  0  0  0  0  0  0
    8.0680   -4.2590   24.1530 C   0  0  0  0  0  0  0  0  0  0  0  0
    8.0730   -5.3840   25.1860 C   0  0  1  0  0  0  0  0  0  0  0  0
    9.4310   -5.9940   24.8270 C   0  0  0  0  0  0  0  0  0  0  0  0
    8.3500   -4.8230   26.5260 N   0  0  0  0  0  0  0  0  0  0  0  0
    7.4650   -4.5960   27.5300 C   0  0  0  0  0  0  0  0  0  0  0  0
    7.7670   -4.8540   28.6910 O   0  0  0  0  0  0  0  0  0  0  0  0
    6.1460   -3.9710   27.1760 C   0  0  0  0  0  0  0  0  0  0  0  0
  2  1  2  0
  3  2  1  0
  4  3  1  0
  5  4  1  0
  6  5  2  0
  7  6  1  0
  8  7  2  0
  9  8  1  0
 10  9  2  0
 10  5  1  0
 11 10  1  0
 12 11  2  0
 13 12  1  0
 13  4  2  0
 14  2  1  0
 15 14  1  0
 16 15  2  0
 17 16  1  0
 18 17  1  0
 19 17  2  0
 20 19  1  0
 21 20  2  0
 21 15  1  0
 22 21  1  0
 23 22  1  0
 24 23  1  0
 24 14  1  0
 14 25  1  6
 26 25  1  0
 27 26  2  0
 28 26  1  0
 29 28  1  0
 29 30  1  1
 31 28  1  0
 32 31  1  6
 33 32  1  0
 33 29  1  0
 34 32  1  0
 34 30  1  0
 35 34  1  0
 36 35  2  0
 37 35  1  0
M  END
