
     RDKit          3D

 34 37  0  0  0  0  0  0  0  0999 V2000
   14.0890   -1.6280   21.2970 Cl  0  0  0  0  0  0  0  0  0  0  0  0
   12.9520   -0.8280   22.3500 C   0  0  0  0  0  0  0  0  0  0  0  0
   11.6240   -1.2130   22.3290 C   0  0  0  0  0  0  0  0  0  0  0  0
   13.3940    0.1910   23.1590 C   0  0  0  0  0  0  0  0  0  0  0  0
   12.4890    0.8270   23.9870 C   0  0  0  0  0  0  0  0  0  0  0  0
   11.1400    0.4810   23.9850 C   0  0  0  0  0  0  0  0  0  0  0  0
   10.2290    1.2250   24.9350 C   0  0  0  0  0  0  0  0  0  0  0  0
    8.8050    0.9260   24.7300 N   0  0  0  0  0  0  0  0  0  0  0  0
    7.6080    1.9070   25.1350 S   0  0  1  0  0  0  0  0  0  0  0  0
    6.3980    1.3640   24.6240 O   0  0  0  0  0  0  0  0  0  0  0  0
    7.7560    2.1780   26.5230 O   0  0  0  0  0  0  0  0  0  0  0  0
    7.9710    3.2410   24.3210 N   0  0  0  0  0  0  0  0  0  0  0  0
    8.5030    4.3790   25.0770 C   0  0  0  0  0  0  0  0  0  0  0  0
    7.3400    3.4690   23.0030 C   0  0  0  0  0  0  0  0  0  0  0  0
    6.1820    4.4380   23.0830 C   0  0  0  0  0  0  0  0  0  0  0  0
    5.3500    4.4500   23.9520 O   0  0  0  0  0  0  0  0  0  0  0  0
    6.2360    5.3230   22.0840 O   0  0  0  0  0  0  0  0  0  0  0  0
    5.4530    6.5320   22.2390 C   0  0  0  0  0  0  0  0  0  0  0  0
   10.6970   -0.5380   23.1270 C   0  0  0  0  0  0  0  0  0  0  0  0
    9.2130   -0.8350   23.0070 C   0  0  1  0  0  0  0  0  0  0  0  0
    8.4860   -0.4470   24.2940 C   0  0  0  0  0  0  0  0  0  0  0  0
    8.6230   -0.0640   21.8210 C   0  0  0  0  0  0  0  0  0  0  0  0
    9.1360    0.9720   21.3940 O   0  0  0  0  0  0  0  0  0  0  0  0
    7.4920   -0.6100   21.2920 N   0  0  0  0  0  0  0  0  0  0  0  0
    6.7310   -0.1460   20.1840 C   0  0  0  0  0  0  0  0  0  0  0  0
    5.5670    0.6530   20.4260 C   0  0  0  0  0  0  0  0  0  0  0  0
    5.0110    0.8670   21.7140 C   0  0  0  0  0  0  0  0  0  0  0  0
    3.8850    1.6250   21.8780 C   0  0  0  0  0  0  0  0  0  0  0  0
    3.2660    2.2190   20.7840 C   0  0  0  0  0  0  0  0  0  0  0  0
    3.7620    2.0440   19.5240 C   0  0  0  0  0  0  0  0  0  0  0  0
    4.9130    1.2470   19.3070 C   0  0  0  0  0  0  0  0  0  0  0  0
    5.4340    0.9780   18.0160 C   0  0  0  0  0  0  0  0  0  0  0  0
    6.4850    0.2040   17.7860 N   0  0  0  0  0  0  0  0  0  0  0  0
    7.1030   -0.3340   18.8500 C   0  0  0  0  0  0  0  0  0  0  0  0
  2  1  1  0
  3  2  2  0
  4  2  1  0
  5  4  2  0
  6  5  1  0
  7  6  1  0
  8  7  1  0
  9  8  1  0
 10  9  2  0
 11  9  2  0
  9 12  1  6
 13 12  1  0
 14 12  1  0
 15 14  1  0
 16 15  2  0
 17 15  1  0
 18 17  1  0
 19  6  2  0
 19  3  1  0
 20 19  1  0
 21 20  1  0
 21  8  1  0
 20 22  1  6
 23 22  2  0
 24 22  1  0
 25 24  1  0
 26 25  1  0
 27 26  2  0
 28 27  1  0
 29 28  2  0
 30 29  1  0
 31 30  2  0
 31 26  1  0
 32 31  1  0
 33 32  2  0
 34 33  1  0
 34 25  2  0
M  END
