
     RDKit          3D

 26 29  0  0  0  0  0  0  0  0999 V2000
    5.4880   -2.6380   20.7300 O   0  0  0  0  0  0  0  0  0  0  0  0
    5.9790   -1.5270   20.7620 C   0  0  0  0  0  0  0  0  0  0  0  0
    5.5810   -0.5100   19.7370 C   0  0  0  0  0  0  0  0  0  0  0  0
    4.6060    0.4890   20.0230 C   0  0  0  0  0  0  0  0  0  0  0  0
    3.9880    0.6650   21.2920 C   0  0  0  0  0  0  0  0  0  0  0  0
    3.0970    1.6760   21.5050 C   0  0  0  0  0  0  0  0  0  0  0  0
    2.7600    2.5480   20.4800 C   0  0  0  0  0  0  0  0  0  0  0  0
    3.3220    2.4190   19.2430 C   0  0  0  0  0  0  0  0  0  0  0  0
    4.2680    1.3980   18.9830 C   0  0  0  0  0  0  0  0  0  0  0  0
    4.9390    1.2530   17.7380 C   0  0  0  0  0  0  0  0  0  0  0  0
    5.8600    0.3290   17.4860 N   0  0  0  0  0  0  0  0  0  0  0  0
    6.1620   -0.5280   18.4700 C   0  0  0  0  0  0  0  0  0  0  0  0
    6.8720   -1.1540   21.7040 N   0  0  0  0  0  0  0  0  0  0  0  0
    7.4790   -2.0640   22.6800 C   0  0  0  0  0  0  0  0  0  0  0  0
    8.9970   -2.0280   22.5600 C   0  0  0  0  0  0  0  0  0  0  0  0
    7.3320    0.2260   21.8440 C   0  0  0  0  0  0  0  0  0  0  0  0
    8.8260    0.3770   21.8980 C   0  0  0  0  0  0  0  0  0  0  0  0
    9.3580    1.3740   21.4260 O   0  0  0  0  0  0  0  0  0  0  0  0
    9.5270   -0.6530   22.4520 N   0  0  0  0  0  0  0  0  0  0  0  0
   10.8880   -0.4890   22.8270 C   0  0  0  0  0  0  0  0  0  0  0  0
   11.8650   -1.1510   22.0900 C   0  0  0  0  0  0  0  0  0  0  0  0
   13.1910   -0.8700   22.3410 C   0  0  0  0  0  0  0  0  0  0  0  0
   14.3970   -1.5570   21.2970 Cl  0  0  0  0  0  0  0  0  0  0  0  0
   11.2520    0.3950   23.8410 C   0  0  0  0  0  0  0  0  0  0  0  0
   12.5960    0.6240   24.1010 C   0  0  0  0  0  0  0  0  0  0  0  0
   13.5770   -0.0050   23.3470 C   0  0  0  0  0  0  0  0  0  0  0  0
  2  1  2  0
  3  2  1  0
  4  3  1  0
  5  4  2  0
  6  5  1  0
  7  6  2  0
  8  7  1  0
  9  8  2  0
  9  4  1  0
 10  9  1  0
 11 10  2  0
 12 11  1  0
 12  3  2  0
 13  2  1  0
 14 13  1  0
 15 14  1  0
 16 13  1  0
 17 16  1  0
 18 17  2  0
 19 17  1  0
 19 15  1  0
 20 19  1  0
 21 20  2  0
 22 21  1  0
 23 22  1  0
 24 20  1  0
 25 24  2  0
 26 25  1  0
 26 22  2  0
M  END
