
     RDKit          3D

 22 24  0  0  0  0  0  0  0  0999 V2000
   13.9600   -1.4570   21.7720 Cl  0  0  0  0  0  0  0  0  0  0  0  0
   12.5010   -0.8660   22.4960 C   0  0  0  0  0  0  0  0  0  0  0  0
   12.5590    0.0260   23.5460 C   0  0  0  0  0  0  0  0  0  0  0  0
   13.7600    0.5280   23.9220 F   0  0  0  0  0  0  0  0  0  0  0  0
   11.2750   -1.3230   22.0550 C   0  0  0  0  0  0  0  0  0  0  0  0
   10.1030   -0.8960   22.6710 C   0  0  1  0  0  0  0  0  0  0  0  0
   10.1970   -0.0290   23.7540 C   0  0  0  0  0  0  0  0  0  0  0  0
   11.4210    0.4410   24.1940 C   0  0  0  0  0  0  0  0  0  0  0  0
    8.7580   -1.3070   22.1180 C   0  0  0  0  0  0  0  0  0  0  0  0
    8.2220   -0.2640   21.1580 C   0  0  1  0  0  0  0  0  0  0  0  0
    8.4800    0.9330   21.2850 O   0  0  0  0  0  0  0  0  0  0  0  0
    7.5540   -0.7680   20.1070 N   0  0  0  0  0  0  0  0  0  0  0  0
    6.5300   -0.2120   19.3190 C   0  0  1  0  0  0  0  0  0  0  0  0
    5.5650    0.6940   19.8730 C   0  0  2  0  0  0  0  0  0  0  0  0
    5.2410    0.7600   21.2530 C   0  0  0  0  0  0  0  0  0  0  0  0
    4.2270    1.5590   21.7020 C   0  0  0  0  0  0  0  0  0  0  0  0
    3.4890    2.3300   20.8180 C   0  0  0  0  0  0  0  0  0  0  0  0
    3.7630    2.3070   19.4820 C   0  0  0  0  0  0  0  0  0  0  0  0
    4.8010    1.4860   18.9710 C   0  0  2  0  0  0  0  0  0  0  0  0
    5.0530    1.3360   17.5900 C   0  0  0  0  0  0  0  0  0  0  0  0
    5.9300    0.4880   17.0800 N   0  0  0  0  0  0  0  0  0  0  0  0
    6.6260   -0.2670   17.9330 C   0  0  0  0  0  0  0  0  0  0  0  0
  2  1  1  0
  3  2  1  0
  4  3  1  0
  5  2  1  0
  6  5  1  0
  7  6  1  0
  8  7  1  0
  8  3  1  0
  6  9  1  6
 10  9  1  0
 10 11  1  6
 12 10  1  0
 13 12  1  1
 14 13  1  0
 14 15  1  6
 16 15  1  0
 17 16  1  0
 18 17  1  0
 19 18  1  6
 19 14  1  0
 20 19  1  0
 21 20  1  0
 22 21  1  0
 22 13  1  0
M  END
$$$$
