
     RDKit          3D

 21 22  0  0  0  0  0  0  0  0999 V2000
    5.5790   -5.1820   20.2100 N   0  0  0  0  0  0  0  0  0  0  0  0
    5.8460   -5.0870   21.3200 C   0  0  0  0  0  0  0  0  0  0  0  0
    6.2490   -4.9420   22.6740 C   0  0  2  0  0  0  0  0  0  0  0  0
    7.5040   -4.4890   22.8860 C   0  0  0  0  0  0  0  0  0  0  0  0
    8.2820   -3.8280   21.9520 N   0  0  0  0  0  0  0  0  0  0  0  0
    7.8560   -3.0160   20.9440 C   0  0  2  0  0  0  0  0  0  0  0  0
    8.9410   -2.5040   20.0240 C   0  0  0  0  0  0  0  0  0  0  0  0
    6.7100   -2.5750   20.8870 O   0  0  0  0  0  0  0  0  0  0  0  0
    8.0760   -4.6320   24.1120 N   0  0  0  0  0  0  0  0  0  0  0  0
    7.4560   -5.2130   25.1830 C   0  0  0  0  0  0  0  0  0  0  0  0
    8.3460   -5.2660   26.6930 S   0  0  0  0  0  0  0  0  0  0  0  0
   10.0460   -5.4380   26.1410 C   0  0  0  0  0  0  0  0  0  0  0  0
    5.3720   -5.4870   23.7960 C   0  0  2  0  0  0  0  0  0  0  0  0
    6.1910   -5.6930   25.0690 C   0  0  1  0  0  0  0  0  0  0  0  0
    5.6300   -6.4650   26.1180 C   0  0  0  0  0  0  0  0  0  0  0  0
    5.1470   -7.1050   26.9380 N   0  0  0  0  0  0  0  0  0  0  0  0
    4.6750   -6.7350   23.1910 C   0  0  0  0  0  0  0  0  0  0  0  0
    3.2650   -7.0030   23.7010 C   0  0  0  0  0  0  0  0  0  0  0  0
    2.3940   -5.7700   23.5800 C   0  0  0  0  0  0  0  0  0  0  0  0
    2.9930   -4.6250   24.3650 C   0  0  0  0  0  0  0  0  0  0  0  0
    4.3900   -4.2890   23.8560 C   0  0  0  0  0  0  0  0  0  0  0  0
  2  1  1  0
  3  2  1  6
  4  3  1  0
  5  4  1  0
  6  5  1  0
  6  7  1  1
  8  6  1  0
  9  4  1  0
 10  9  1  0
 11 10  1  0
 12 11  1  0
 13  3  1  0
 14 13  1  0
 14 10  1  0
 14 15  1  6
 16 15  1  0
 13 17  1  6
 18 17  1  0
 19 18  1  0
 20 19  1  0
 21 13  1  0
 21 20  1  0
M  END
