
     RDKit          3D

 32 36  0  0  0  0  0  0  0  0999 V2000
    7.6980    2.1230   26.6570 O   0  0  0  0  0  0  0  0  0  0  0  0
    7.1150    1.2930   25.6470 S   0  0  2  0  0  0  0  0  0  0  0  0
    6.2100    1.8550   24.6940 O   0  0  0  0  0  0  0  0  0  0  0  0
    6.4190   -0.0160   26.4820 C   0  0  0  0  0  0  0  0  0  0  0  0
    5.5350   -0.9200   26.0180 N   0  0  0  0  0  0  0  0  0  0  0  0
    5.2880   -1.8080   27.0230 C   0  0  0  0  0  0  0  0  0  0  0  0
    6.0380   -1.3970   28.0760 C   0  0  0  0  0  0  0  0  0  0  0  0
    6.7470   -0.2690   27.7330 N   0  0  0  0  0  0  0  0  0  0  0  0
    8.3190    0.5450   24.8240 N   0  0  0  0  0  0  0  0  0  0  0  0
    9.5460    1.3110   24.5670 C   0  0  0  0  0  0  0  0  0  0  0  0
    7.9370   -0.4460   23.7970 C   0  0  0  0  0  0  0  0  0  0  0  0
    8.8280   -0.7370   22.5870 C   0  0  2  0  0  0  0  0  0  0  0  0
   10.2840   -0.4660   22.9140 C   0  0  0  0  0  0  0  0  0  0  0  0
   10.6100    0.4490   23.9220 C   0  0  1  0  0  0  0  0  0  0  0  0
   11.9480    0.6250   24.2700 C   0  0  0  0  0  0  0  0  0  0  0  0
   12.9560   -0.0450   23.6010 C   0  0  0  0  0  0  0  0  0  0  0  0
   11.3030   -1.1440   22.2440 C   0  0  0  0  0  0  0  0  0  0  0  0
   12.6210   -0.8970   22.5760 C   0  0  1  0  0  0  0  0  0  0  0  0
   13.8840   -1.5680   21.5790 Cl  0  0  0  0  0  0  0  0  0  0  0  0
    8.3750    0.1010   21.3900 C   0  0  2  0  0  0  0  0  0  0  0  0
    8.5090    1.3200   21.3630 O   0  0  0  0  0  0  0  0  0  0  0  0
    7.6930   -0.5930   20.4550 N   0  0  0  0  0  0  0  0  0  0  0  0
    6.6600   -0.2000   19.5750 C   0  0  1  0  0  0  0  0  0  0  0  0
    5.6640    0.7450   19.9920 C   0  0  2  0  0  0  0  0  0  0  0  0
    5.2620    0.9180   21.3440 C   0  0  0  0  0  0  0  0  0  0  0  0
    4.1950    1.7060   21.6670 C   0  0  0  0  0  0  0  0  0  0  0  0
    3.4830    2.3730   20.6810 C   0  0  0  0  0  0  0  0  0  0  0  0
    3.8290    2.2450   19.3670 C   0  0  0  0  0  0  0  0  0  0  0  0
    4.9140    1.4180   18.9840 C   0  0  2  0  0  0  0  0  0  0  0  0
    5.2010    1.1120   17.6350 C   0  0  0  0  0  0  0  0  0  0  0  0
    6.0790    0.2010   17.2500 N   0  0  0  0  0  0  0  0  0  0  0  0
    6.7630   -0.4400   18.2070 C   0  0  0  0  0  0  0  0  0  0  0  0
  2  1  1  1
  3  2  1  0
  4  2  1  0
  5  4  1  0
  6  5  1  0
  7  6  1  0
  8  4  1  0
  8  7  1  0
  9  2  1  0
 10  9  1  0
 11  9  1  0
 12 11  1  1
 13 12  1  0
 14 13  1  0
 14 10  1  6
 15 14  1  0
 16 15  1  0
 17 13  1  0
 18 17  1  0
 18 16  1  0
 18 19  1  6
 20 12  1  0
 20 21  1  1
 22 20  1  0
 23 22  1  6
 24 23  1  0
 24 25  1  1
 26 25  1  0
 27 26  1  0
 28 27  1  0
 29 28  1  1
 29 24  1  0
 30 29  1  0
 31 30  1  0
 32 31  1  0
 32 23  1  0
M  END
$$$$
