
     RDKit          3D

 23 25  0  0  0  0  0  0  0  0999 V2000
    7.1820   -0.3940   18.1670 O   0  0  0  0  0  0  0  0  0  0  0  0
    6.5540   -0.3080   19.2160 C   0  0  0  0  0  0  0  0  0  0  0  0
    5.4950    0.6990   19.3840 C   0  0  0  0  0  0  0  0  0  0  0  0
    4.9610    1.5060   17.9800 S   0  0  0  0  0  0  0  0  0  0  0  0
    3.8540    2.4340   18.8790 C   0  0  0  0  0  0  0  0  0  0  0  0
    3.8810    2.1340   20.1930 C   0  0  0  0  0  0  0  0  0  0  0  0
    4.8140    1.1320   20.5070 C   0  0  0  0  0  0  0  0  0  0  0  0
    6.8250   -1.0710   20.3200 N   0  0  0  0  0  0  0  0  0  0  0  0
    7.8480   -2.0310   20.3930 C   0  0  0  0  0  0  0  0  0  0  0  0
    7.5580   -3.3110   19.8270 C   0  0  0  0  0  0  0  0  0  0  0  0
    6.5280   -3.6190   19.2630 O   0  0  0  0  0  0  0  0  0  0  0  0
    9.0700   -1.7620   21.0090 C   0  0  0  0  0  0  0  0  0  0  0  0
    9.5000   -0.5510   21.6290 C   0  0  0  0  0  0  0  0  0  0  0  0
    8.5890    0.9260   21.6430 S   0  0  0  0  0  0  0  0  0  0  0  0
    9.7930    1.7180   22.6200 C   0  0  0  0  0  0  0  0  0  0  0  0
   10.8460    0.8690   22.9080 C   0  0  0  0  0  0  0  0  0  0  0  0
   10.6750   -0.4080   22.3400 C   0  0  0  0  0  0  0  0  0  0  0  0
    9.6380    3.0170   23.0110 N   0  0  0  0  0  0  0  0  0  0  0  0
   10.4710    3.4720   24.1350 C   0  0  0  0  0  0  0  0  0  0  0  0
   10.6300    4.9750   24.0790 C   0  0  0  0  0  0  0  0  0  0  0  0
    9.3590    5.6360   24.0310 O   0  0  0  0  0  0  0  0  0  0  0  0
    8.6080    5.2270   22.8730 C   0  0  0  0  0  0  0  0  0  0  0  0
    8.3610    3.7370   22.8730 C   0  0  0  0  0  0  0  0  0  0  0  0
  2  1  2  0
  3  2  1  0
  4  3  1  0
  5  4  1  0
  6  5  2  0
  7  6  1  0
  7  3  2  0
  8  2  1  0
  9  8  1  0
 10  9  1  0
 11 10  2  0
 12  9  2  3
 13 12  1  0
 14 13  1  0
 15 14  1  0
 16 15  2  0
 17 13  2  0
 17 16  1  0
 18 15  1  0
 19 18  1  0
 20 19  1  0
 21 20  1  0
 22 21  1  0
 23 22  1  0
 23 18  1  0
M  END
