
     RDKit          3D

 21 23  0  0  0  0  0  0  0  0999 V2000
    8.7090    1.0140   20.9380 O   0  0  0  0  0  0  0  0  0  0  0  0
    8.1310    0.0070   21.3510 C   0  0  0  0  0  0  0  0  0  0  0  0
    8.5290   -0.6690   22.6450 C   0  0  0  0  0  0  0  0  0  0  0  0
   10.0280   -0.7440   22.7830 C   0  0  0  0  0  0  0  0  0  0  0  0
   10.7650   -1.7020   22.1010 C   0  0  0  0  0  0  0  0  0  0  0  0
   12.1370   -1.7150   22.2580 C   0  0  0  0  0  0  0  0  0  0  0  0
   10.5970    0.1810   23.5760 N   0  0  0  0  0  0  0  0  0  0  0  0
   11.9290    0.1560   23.7180 C   0  0  0  0  0  0  0  0  0  0  0  0
   12.7180   -0.7900   23.0880 C   0  0  0  0  0  0  0  0  0  0  0  0
   14.4230   -0.8890   23.4160 Cl  0  0  0  0  0  0  0  0  0  0  0  0
    7.0800   -0.5680   20.7290 N   0  0  0  0  0  0  0  0  0  0  0  0
    6.3500   -0.0570   19.6470 C   0  0  0  0  0  0  0  0  0  0  0  0
    5.2650    0.8220   19.9400 C   0  0  0  0  0  0  0  0  0  0  0  0
    4.7340    1.0150   21.2410 C   0  0  0  0  0  0  0  0  0  0  0  0
    3.7010    1.8810   21.4570 C   0  0  0  0  0  0  0  0  0  0  0  0
    3.1480    2.5980   20.4060 C   0  0  0  0  0  0  0  0  0  0  0  0
    3.6170    2.4390   19.1320 C   0  0  0  0  0  0  0  0  0  0  0  0
    4.6810    1.5420   18.8630 C   0  0  0  0  0  0  0  0  0  0  0  0
    5.1880    1.3020   17.5610 C   0  0  0  0  0  0  0  0  0  0  0  0
    6.1690    0.4520   17.2860 N   0  0  0  0  0  0  0  0  0  0  0  0
    6.7280   -0.2020   18.3130 C   0  0  0  0  0  0  0  0  0  0  0  0
  2  1  2  0
  3  2  1  0
  4  3  1  0
  5  4  2  0
  6  5  1  0
  7  4  1  0
  8  7  2  0
  9  8  1  0
  9  6  2  0
 10  9  1  0
 11  2  1  0
 12 11  1  0
 13 12  1  0
 14 13  2  0
 15 14  1  0
 16 15  2  0
 17 16  1  0
 18 17  2  0
 18 13  1  0
 19 18  1  0
 20 19  2  0
 21 20  1  0
 21 12  2  0
M  END
