
     RDKit          3D

 33 36  0  0  0  0  0  0  0  0999 V2000
   13.9580   -1.5600   21.4130 Cl  0  0  0  0  0  0  0  0  0  0  0  0
   12.7430   -0.9300   22.4910 C   0  0  0  0  0  0  0  0  0  0  0  0
   11.4080   -1.1260   22.1920 C   0  0  0  0  0  0  0  0  0  0  0  0
   13.1340   -0.2350   23.6100 C   0  0  0  0  0  0  0  0  0  0  0  0
   12.1660    0.2800   24.4510 C   0  0  0  0  0  0  0  0  0  0  0  0
   10.8080    0.1090   24.1820 C   0  0  0  0  0  0  0  0  0  0  0  0
    9.8080    0.6920   25.1550 C   0  0  0  0  0  0  0  0  0  0  0  0
    8.4580    0.6920   24.5830 N   0  0  0  0  0  0  0  0  0  0  0  0
    7.3150    1.5040   25.3650 S   0  0  2  0  0  0  0  0  0  0  0  0
    7.6030    1.4540   26.7550 O   0  0  0  0  0  0  0  0  0  0  0  0
    6.0630    1.0550   24.8600 O   0  0  0  0  0  0  0  0  0  0  0  0
    7.5550    3.0010   24.8460 N   0  0  0  0  0  0  0  0  0  0  0  0
    7.5830    3.3980   23.4180 C   0  0  0  0  0  0  0  0  0  0  0  0
    6.6580    4.5700   23.0950 C   0  0  0  0  0  0  0  0  0  0  0  0
    7.4010    5.7430   22.6140 C   0  0  0  0  0  0  0  0  0  0  0  0
    8.0020    6.6510   22.2720 N   0  0  0  0  0  0  0  0  0  0  0  0
    8.0340    4.0070   25.7990 C   0  0  0  0  0  0  0  0  0  0  0  0
   10.4220   -0.6070   23.0360 C   0  0  0  0  0  0  0  0  0  0  0  0
    8.9550   -0.8650   22.7340 C   0  0  1  0  0  0  0  0  0  0  0  0
    8.0790   -0.5880   23.9570 C   0  0  0  0  0  0  0  0  0  0  0  0
    8.4880   -0.0900   21.5000 C   0  0  0  0  0  0  0  0  0  0  0  0
    9.0580    0.9270   21.1120 O   0  0  0  0  0  0  0  0  0  0  0  0
    7.3720   -0.5890   20.9130 N   0  0  0  0  0  0  0  0  0  0  0  0
    6.6190   -0.0360   19.8520 C   0  0  1  0  0  0  0  0  0  0  0  0
    5.5030    0.7980   20.1720 C   0  0  0  0  0  0  0  0  0  0  0  0
    5.0520    1.0380   21.4960 C   0  0  0  0  0  0  0  0  0  0  0  0
    3.9930    1.8670   21.7370 C   0  0  0  0  0  0  0  0  0  0  0  0
    3.3290    2.4930   20.6870 C   0  0  0  0  0  0  0  0  0  0  0  0
    3.7220    2.2920   19.3960 C   0  0  0  0  0  0  0  0  0  0  0  0
    4.8170    1.4410   19.1020 C   0  0  0  0  0  0  0  0  0  0  0  0
    5.2770    1.1990   17.7850 C   0  0  0  0  0  0  0  0  0  0  0  0
    6.3020    0.4180   17.4880 N   0  0  0  0  0  0  0  0  0  0  0  0
    6.9390   -0.1780   18.5030 C   0  0  0  0  0  0  0  0  0  0  0  0
  2  1  1  0
  3  2  1  0
  4  2  1  0
  5  4  1  0
  6  5  1  0
  7  6  1  0
  8  7  1  0
  9  8  1  0
  9 10  1  1
 11  9  1  0
 12  9  1  0
 13 12  1  0
 14 13  1  0
 15 14  1  0
 16 15  1  0
 17 12  1  0
 18  6  1  0
 18  3  1  0
 19 18  1  0
 20 19  1  0
 20  8  1  0
 19 21  1  6
 22 21  1  0
 23 21  1  0
 24 23  1  1
 25 24  1  0
 26 25  1  0
 27 26  1  0
 28 27  1  0
 29 28  1  0
 30 29  1  0
 30 25  1  0
 31 30  1  0
 32 31  1  0
 33 32  1  0
 33 24  1  0
M  END
$$$$
