
     RDKit          3D

 27 30  0  0  0  0  0  0  0  0999 V2000
   14.0360   -1.7050   21.1470 Cl  0  0  0  0  0  0  0  0  0  0  0  0
   12.8610   -0.9460   22.1860 C   0  0  2  0  0  0  0  0  0  0  0  0
   11.5300   -1.2810   22.0460 C   0  0  0  0  0  0  0  0  0  0  0  0
   13.2690    0.0150   23.0800 C   0  0  0  0  0  0  0  0  0  0  0  0
   12.3180    0.6560   23.8540 C   0  0  0  0  0  0  0  0  0  0  0  0
   10.9620    0.3470   23.7370 C   0  0  2  0  0  0  0  0  0  0  0  0
    9.9790    0.9860   24.6970 C   0  0  0  0  0  0  0  0  0  0  0  0
    8.5680    0.7590   24.3380 N   0  0  0  0  0  0  0  0  0  0  0  0
    7.5460    1.6040   24.6380 C   0  0  0  0  0  0  0  0  0  0  0  0
    7.1130    2.4010   23.8140 O   0  0  0  0  0  0  0  0  0  0  0  0
    6.9520    1.5170   26.0060 C   0  0  0  0  0  0  0  0  0  0  0  0
   10.5660   -0.6170   22.8020 C   0  0  0  0  0  0  0  0  0  0  0  0
    9.0940   -0.9030   22.5900 C   0  0  1  0  0  0  0  0  0  0  0  0
    8.3130   -0.6030   23.8660 C   0  0  0  0  0  0  0  0  0  0  0  0
    8.5390   -0.1170   21.4010 C   0  0  0  0  0  0  0  0  0  0  0  0
    9.0380    0.9440   21.0240 O   0  0  0  0  0  0  0  0  0  0  0  0
    7.4560   -0.6800   20.8200 N   0  0  0  0  0  0  0  0  0  0  0  0
    6.6990   -0.1730   19.7440 C   0  0  1  0  0  0  0  0  0  0  0  0
    5.5760    0.6620   20.0380 C   0  0  0  0  0  0  0  0  0  0  0  0
    5.1020    0.9120   21.3520 C   0  0  0  0  0  0  0  0  0  0  0  0
    4.0400    1.7420   21.5690 C   0  0  0  0  0  0  0  0  0  0  0  0
    3.4010    2.3670   20.5040 C   0  0  0  0  0  0  0  0  0  0  0  0
    3.8260    2.1660   19.2220 C   0  0  0  0  0  0  0  0  0  0  0  0
    4.9210    1.3080   18.9530 C   0  0  0  0  0  0  0  0  0  0  0  0
    5.4210    1.0720   17.6490 C   0  0  0  0  0  0  0  0  0  0  0  0
    6.4540    0.2860   17.3770 N   0  0  0  0  0  0  0  0  0  0  0  0
    7.0610   -0.3180   18.4060 C   0  0  0  0  0  0  0  0  0  0  0  0
  2  1  1  6
  3  2  1  0
  4  2  1  0
  5  4  1  0
  6  5  1  1
  7  6  1  0
  8  7  1  0
  9  8  1  0
 10  9  1  0
 11  9  1  0
 12  6  1  0
 12  3  1  0
 13 12  1  0
 14 13  1  0
 14  8  1  0
 13 15  1  6
 16 15  1  0
 17 15  1  0
 18 17  1  1
 19 18  1  0
 20 19  1  0
 21 20  1  0
 22 21  1  0
 23 22  1  0
 24 23  1  0
 24 19  1  0
 25 24  1  0
 26 25  1  0
 27 26  1  0
 27 18  1  0
M  END
$$$$
