
     RDKit          3D

 29 32  0  0  0  0  0  0  0  0999 V2000
   14.0230   -1.6190   21.4970 Cl  0  0  0  0  0  0  0  0  0  0  0  0
   12.7890   -0.8620   22.4690 C   0  0  0  0  0  0  0  0  0  0  0  0
   11.4600   -1.1320   22.1980 C   0  0  0  0  0  0  0  0  0  0  0  0
   13.1580    0.0060   23.4700 C   0  0  0  0  0  0  0  0  0  0  0  0
   12.1740    0.6180   24.2240 C   0  0  0  0  0  0  0  0  0  0  0  0
   10.8220    0.3750   23.9790 C   0  0  0  0  0  0  0  0  0  0  0  0
    9.7750    1.0470   24.8370 C   0  0  0  0  0  0  0  0  0  0  0  0
    8.4440    1.0190   24.2110 N   0  0  0  0  0  0  0  0  0  0  0  0
    7.4160    1.7020   24.9960 C   0  0  0  0  0  0  0  0  0  0  0  0
    7.1520    3.1280   24.5360 C   0  0  0  0  0  0  0  0  0  0  0  0
    6.9430    4.0310   25.3450 O   0  0  0  0  0  0  0  0  0  0  0  0
    7.1570    3.3300   23.2220 N   0  0  0  0  0  0  0  0  0  0  0  0
    6.8210    4.6100   22.6270 C   0  0  0  0  0  0  0  0  0  0  0  0
   10.4620   -0.5040   22.9440 C   0  0  0  0  0  0  0  0  0  0  0  0
    8.9960   -0.7540   22.6230 C   0  0  1  0  0  0  0  0  0  0  0  0
    8.1070   -0.3470   23.8010 C   0  0  0  0  0  0  0  0  0  0  0  0
    8.5880    0.0790   21.4070 C   0  0  2  0  0  0  0  0  0  0  0  0
    8.7640    1.2930   21.3650 O   0  0  0  0  0  0  0  0  0  0  0  0
    7.8920   -0.6060   20.4710 N   0  0  0  0  0  0  0  0  0  0  0  0
    6.8570   -0.2050   19.5970 C   0  0  1  0  0  0  0  0  0  0  0  0
    5.8550    0.7270   20.0300 C   0  0  2  0  0  0  0  0  0  0  0  0
    5.4530    0.8790   21.3850 C   0  0  0  0  0  0  0  0  0  0  0  0
    4.3950    1.6750   21.7220 C   0  0  0  0  0  0  0  0  0  0  0  0
    3.6930    2.3710   20.7490 C   0  0  0  0  0  0  0  0  0  0  0  0
    4.0340    2.2570   19.4310 C   0  0  0  0  0  0  0  0  0  0  0  0
    5.1070    1.4200   19.0320 C   0  0  2  0  0  0  0  0  0  0  0  0
    5.3900    1.1320   17.6760 C   0  0  0  0  0  0  0  0  0  0  0  0
    6.2740    0.2320   17.2770 N   0  0  0  0  0  0  0  0  0  0  0  0
    6.9640   -0.4180   18.2230 C   0  0  0  0  0  0  0  0  0  0  0  0
  2  1  1  0
  3  2  1  0
  4  2  1  0
  5  4  1  0
  6  5  1  0
  7  6  1  0
  8  7  1  0
  9  8  1  0
 10  9  1  0
 11 10  1  0
 12 10  1  0
 13 12  1  0
 14  6  1  0
 14  3  1  0
 15 14  1  0
 15 16  1  1
 16  8  1  0
 17 15  1  0
 17 18  1  1
 19 17  1  0
 20 19  1  6
 21 20  1  0
 21 22  1  1
 23 22  1  0
 24 23  1  0
 25 24  1  0
 26 25  1  1
 26 21  1  0
 27 26  1  0
 28 27  1  0
 29 28  1  0
 29 20  1  0
M  END
$$$$
