
     RDKit          3D

 27 31  0  0  0  0  0  0  0  0999 V2000
    9.2810    1.2630   21.1500 O   0  0  0  0  0  0  0  0  0  0  0  0
    8.8340    0.3350   21.7950 C   0  0  0  0  0  0  0  0  0  0  0  0
    9.4990   -0.0830   23.1040 C   0  0  2  0  0  0  0  0  0  0  0  0
    8.8870    0.8250   24.2000 C   0  0  0  0  0  0  0  0  0  0  0  0
    9.7230    2.0610   24.4580 C   0  0  0  0  0  0  0  0  0  0  0  0
   11.0720    1.7130   24.8090 O   0  0  0  0  0  0  0  0  0  0  0  0
   11.0260    0.0500   23.0350 C   0  0  0  0  0  0  0  0  0  0  0  0
   11.7050    0.9620   23.8510 C   0  0  0  0  0  0  0  0  0  0  0  0
   13.0730    1.1490   23.7520 C   0  0  0  0  0  0  0  0  0  0  0  0
   13.7960    0.4100   22.8360 C   0  0  0  0  0  0  0  0  0  0  0  0
   11.7750   -0.7060   22.1340 C   0  0  0  0  0  0  0  0  0  0  0  0
   13.1430   -0.5050   22.0470 C   0  0  0  0  0  0  0  0  0  0  0  0
   14.0620   -1.4290   20.8880 Cl  0  0  0  0  0  0  0  0  0  0  0  0
    7.6930   -0.3190   21.4040 N   0  0  0  0  0  0  0  0  0  0  0  0
    7.3480   -1.6850   21.8260 C   0  0  0  0  0  0  0  0  0  0  0  0
    7.7420   -1.9250   23.2580 C   0  0  0  0  0  0  0  0  0  0  0  0
    9.2000   -1.5530   23.4770 C   0  0  0  0  0  0  0  0  0  0  0  0
    6.9500    0.1220   20.2570 C   0  0  0  0  0  0  0  0  0  0  0  0
    5.7800    0.9240   20.4220 C   0  0  0  0  0  0  0  0  0  0  0  0
    5.2430    1.2960   21.6840 C   0  0  0  0  0  0  0  0  0  0  0  0
    4.1150    2.0580   21.7710 C   0  0  0  0  0  0  0  0  0  0  0  0
    3.4680    2.4980   20.6270 C   0  0  0  0  0  0  0  0  0  0  0  0
    3.9370    2.1620   19.3910 C   0  0  0  0  0  0  0  0  0  0  0  0
    5.0990    1.3630   19.2520 C   0  0  0  0  0  0  0  0  0  0  0  0
    5.6200    0.9640   17.9960 C   0  0  0  0  0  0  0  0  0  0  0  0
    6.7020    0.2120   17.8450 N   0  0  0  0  0  0  0  0  0  0  0  0
    7.3330   -0.1910   18.9540 C   0  0  0  0  0  0  0  0  0  0  0  0
  2  1  2  0
  3  2  1  0
  3  4  1  1
  5  4  1  0
  6  5  1  0
  7  3  1  0
  8  7  2  0
  8  6  1  0
  9  8  1  0
 10  9  2  0
 11  7  1  0
 12 11  2  0
 12 10  1  0
 13 12  1  0
 14  2  1  0
 15 14  1  0
 16 15  1  0
 17 16  1  0
 17  3  1  0
 18 14  1  0
 19 18  1  0
 20 19  2  0
 21 20  1  0
 22 21  2  0
 23 22  1  0
 24 23  2  0
 24 19  1  0
 25 24  1  0
 26 25  2  0
 27 26  1  0
 27 18  2  0
M  END
