
     RDKit          3D

 25 28  0  0  0  0  0  0  0  0999 V2000
    8.6730    0.8860   21.2680 O   0  0  0  0  0  0  0  0  0  0  0  0
    8.1010   -0.1670   21.5420 C   0  0  0  0  0  0  0  0  0  0  0  0
    8.5160   -1.0330   22.7300 C   0  0  2  0  0  0  0  0  0  0  0  0
    7.6180   -0.7240   23.9420 C   0  0  0  0  0  0  0  0  0  0  0  0
    8.0070    0.5980   24.5570 C   0  0  0  0  0  0  0  0  0  0  0  0
    9.3870    0.6110   24.9770 O   0  0  0  0  0  0  0  0  0  0  0  0
    9.9720   -0.7350   23.0280 C   0  0  0  0  0  0  0  0  0  0  0  0
   10.3130    0.0950   24.1050 C   0  0  0  0  0  0  0  0  0  0  0  0
   11.6440    0.3980   24.3460 C   0  0  0  0  0  0  0  0  0  0  0  0
   12.0600    1.4520   25.6570 Cl  0  0  0  0  0  0  0  0  0  0  0  0
   12.6520   -0.1080   23.5510 C   0  0  0  0  0  0  0  0  0  0  0  0
   10.9950   -1.2510   22.2310 C   0  0  0  0  0  0  0  0  0  0  0  0
   12.3090   -0.9240   22.4970 C   0  0  1  0  0  0  0  0  0  0  0  0
   13.5570   -1.4890   21.4220 Cl  0  0  0  0  0  0  0  0  0  0  0  0
    7.0560   -0.6500   20.8390 N   0  0  0  0  0  0  0  0  0  0  0  0
    6.3450   -0.0310   19.7960 C   0  0  0  0  0  0  0  0  0  0  0  0
    5.2060    0.7620   20.1290 C   0  0  0  0  0  0  0  0  0  0  0  0
    4.7200    0.9290   21.4510 C   0  0  0  0  0  0  0  0  0  0  0  0
    3.6000    1.6710   21.7010 C   0  0  0  0  0  0  0  0  0  0  0  0
    2.9130    2.2850   20.6610 C   0  0  0  0  0  0  0  0  0  0  0  0
    3.3450    2.1610   19.3710 C   0  0  0  0  0  0  0  0  0  0  0  0
    4.4980    1.3950   19.0680 C   0  0  0  0  0  0  0  0  0  0  0  0
    4.9770    1.1970   17.7490 C   0  0  0  0  0  0  0  0  0  0  0  0
    6.0400    0.4690   17.4430 N   0  0  0  0  0  0  0  0  0  0  0  0
    6.6940   -0.1270   18.4490 C   0  0  0  0  0  0  0  0  0  0  0  0
  2  1  1  0
  3  2  1  6
  4  3  1  0
  5  4  1  0
  6  5  1  0
  7  3  1  0
  8  7  1  0
  8  6  1  0
  9  8  1  0
 10  9  1  0
 11  9  1  0
 12  7  1  0
 13 12  1  0
 13 11  1  0
 13 14  1  6
 15  2  1  0
 16 15  1  0
 17 16  1  0
 18 17  1  0
 19 18  1  0
 20 19  1  0
 21 20  1  0
 22 21  1  0
 22 17  1  0
 23 22  1  0
 24 23  1  0
 25 24  1  0
 25 16  1  0
M  END
$$$$
