
     RDKit          3D

 33 37  0  0  0  0  0  0  0  0999 V2000
   13.8730   -1.8230   21.2120 Cl  0  0  0  0  0  0  0  0  0  0  0  0
   12.7460   -1.0740   22.3090 C   0  0  0  0  0  0  0  0  0  0  0  0
   11.3930   -1.2750   22.1220 C   0  0  0  0  0  0  0  0  0  0  0  0
   13.2200   -0.2890   23.3330 C   0  0  0  0  0  0  0  0  0  0  0  0
   12.3160    0.2990   24.2010 C   0  0  0  0  0  0  0  0  0  0  0  0
   10.9420    0.1070   24.0550 C   0  0  2  0  0  0  0  0  0  0  0  0
   10.0300    0.6870   25.1160 C   0  0  0  0  0  0  0  0  0  0  0  0
    8.6050    0.6190   24.7660 N   0  0  0  0  0  0  0  0  0  0  0  0
    7.4540    1.6110   25.2890 S   0  0  2  0  0  0  0  0  0  0  0  0
    7.6350    1.8000   26.6820 O   0  0  0  0  0  0  0  0  0  0  0  0
    6.2020    1.1740   24.7700 O   0  0  0  0  0  0  0  0  0  0  0  0
    7.8110    2.9890   24.5740 N   0  0  0  0  0  0  0  0  0  0  0  0
    8.0490    4.3790   25.0490 C   0  0  0  0  0  0  0  0  0  0  0  0
    7.9330    3.4130   23.1530 C   0  0  0  0  0  0  0  0  0  0  0  0
    7.5350    4.8070   23.6630 C   0  0  1  0  0  0  0  0  0  0  0  0
    6.1110    4.8680   23.5530 O   0  0  0  0  0  0  0  0  0  0  0  0
    5.6510    5.2380   22.2600 C   0  0  0  0  0  0  0  0  0  0  0  0
   10.4750   -0.6780   22.9880 C   0  0  0  0  0  0  0  0  0  0  0  0
    8.9920   -0.8750   22.7530 C   0  0  1  0  0  0  0  0  0  0  0  0
    8.1890   -0.5830   24.0210 C   0  0  0  0  0  0  0  0  0  0  0  0
    8.5370   -0.0620   21.5400 C   0  0  0  0  0  0  0  0  0  0  0  0
    9.1310    0.9500   21.1730 O   0  0  0  0  0  0  0  0  0  0  0  0
    7.4090   -0.5190   20.9530 N   0  0  0  0  0  0  0  0  0  0  0  0
    6.6590    0.0710   19.9110 C   0  0  0  0  0  0  0  0  0  0  0  0
    5.4650    0.7850   20.2470 C   0  0  1  0  0  0  0  0  0  0  0  0
    5.0170    0.9870   21.5780 C   0  0  0  0  0  0  0  0  0  0  0  0
    3.9060    1.7360   21.8380 C   0  0  0  0  0  0  0  0  0  0  0  0
    3.1780    2.3110   20.8010 C   0  0  0  0  0  0  0  0  0  0  0  0
    3.5630    2.1380   19.5020 C   0  0  0  0  0  0  0  0  0  0  0  0
    4.7150    1.3760   19.1880 C   0  0  1  0  0  0  0  0  0  0  0  0
    5.2010    1.2170   17.8680 C   0  0  0  0  0  0  0  0  0  0  0  0
    6.3160    0.5720   17.5600 N   0  0  0  0  0  0  0  0  0  0  0  0
    7.0120    0.0190   18.5620 C   0  0  0  0  0  0  0  0  0  0  0  0
  2  1  1  0
  3  2  1  0
  4  2  1  0
  5  4  1  0
  6  5  1  1
  7  6  1  0
  8  7  1  0
  9  8  1  0
  9 10  1  1
 11  9  1  0
 12  9  1  0
 13 12  1  0
 14 12  1  0
 15 14  1  0
 15 13  1  0
 15 16  1  1
 17 16  1  0
 18  6  1  0
 18  3  1  0
 19 18  1  0
 20 19  1  0
 20  8  1  0
 19 21  1  6
 22 21  1  0
 23 21  1  0
 24 23  1  0
 25 24  1  0
 25 26  1  1
 27 26  1  0
 28 27  1  0
 29 28  1  0
 30 29  1  1
 30 25  1  0
 31 30  1  0
 32 31  1  0
 33 32  1  0
 33 24  1  0
M  END
$$$$
