
     RDKit          3D

 21 23  0  0  0  0  0  0  0  0999 V2000
    9.0050    0.9940   20.9830 O   0  0  0  0  0  0  0  0  0  0  0  0
    8.5010   -0.0860   21.2990 C   0  0  0  0  0  0  0  0  0  0  0  0
    9.1130   -0.9870   22.3550 C   0  0  0  0  0  0  0  0  0  0  0  0
   10.5480   -0.6320   22.6640 C   0  0  0  0  0  0  0  0  0  0  0  0
   10.8640    0.4200   23.5100 C   0  0  0  0  0  0  0  0  0  0  0  0
   12.1130    0.8400   23.7570 N   0  0  0  0  0  0  0  0  0  0  0  0
   13.1200    0.1980   23.1490 C   0  0  0  0  0  0  0  0  0  0  0  0
   11.6020   -1.2980   22.0510 C   0  0  0  0  0  0  0  0  0  0  0  0
   12.8920   -0.8680   22.2830 C   0  0  0  0  0  0  0  0  0  0  0  0
   14.2050   -1.6060   21.4060 Cl  0  0  0  0  0  0  0  0  0  0  0  0
    7.3720   -0.5710   20.7500 N   0  0  0  0  0  0  0  0  0  0  0  0
    6.5910    0.0010   19.7310 C   0  0  0  0  0  0  0  0  0  0  0  0
    5.4660    0.8070   20.0920 C   0  0  0  0  0  0  0  0  0  0  0  0
    5.0140    0.9810   21.4280 C   0  0  0  0  0  0  0  0  0  0  0  0
    3.9340    1.7720   21.7070 C   0  0  0  0  0  0  0  0  0  0  0  0
    3.2560    2.4310   20.6840 C   0  0  0  0  0  0  0  0  0  0  0  0
    3.6560    2.2960   19.3850 C   0  0  0  0  0  0  0  0  0  0  0  0
    4.7650    1.4770   19.0520 C   0  0  0  0  0  0  0  0  0  0  0  0
    5.2160    1.2830   17.7250 C   0  0  0  0  0  0  0  0  0  0  0  0
    6.2520    0.5230   17.3900 N   0  0  0  0  0  0  0  0  0  0  0  0
    6.9120   -0.0930   18.3770 C   0  0  0  0  0  0  0  0  0  0  0  0
  2  1  2  0
  3  2  1  0
  4  3  1  0
  5  4  2  0
  6  5  1  0
  7  6  2  0
  8  4  1  0
  9  8  2  0
  9  7  1  0
 10  9  1  0
 11  2  1  0
 12 11  1  0
 13 12  1  0
 14 13  2  0
 15 14  1  0
 16 15  2  0
 17 16  1  0
 18 17  2  0
 18 13  1  0
 19 18  1  0
 20 19  2  0
 21 20  1  0
 21 12  2  0
M  END
