
     RDKit          3D

 33 37  0  0  0  0  0  0  0  0999 V2000
    9.2270    1.3450   21.0650 O   0  0  0  0  0  0  0  0  0  0  0  0
    8.6940    0.3930   21.6180 C   0  0  0  0  0  0  0  0  0  0  0  0
    7.5250   -0.1370   21.1890 N   0  0  0  0  0  0  0  0  0  0  0  0
    6.7220    0.2730   20.1040 C   0  0  0  0  0  0  0  0  0  0  0  0
    5.4850    0.9250   20.3930 C   0  0  0  0  0  0  0  0  0  0  0  0
    4.9920    1.1350   21.7070 C   0  0  0  0  0  0  0  0  0  0  0  0
    3.8040    1.7740   21.9170 C   0  0  0  0  0  0  0  0  0  0  0  0
    3.0500    2.2390   20.8470 C   0  0  0  0  0  0  0  0  0  0  0  0
    3.4780    2.0560   19.5620 C   0  0  0  0  0  0  0  0  0  0  0  0
    4.7000    1.3900   19.2980 C   0  0  0  0  0  0  0  0  0  0  0  0
    5.1920    1.1590   17.9890 C   0  0  0  0  0  0  0  0  0  0  0  0
    6.3330    0.5410   17.7220 N   0  0  0  0  0  0  0  0  0  0  0  0
    7.0660    0.1160   18.7600 C   0  0  0  0  0  0  0  0  0  0  0  0
    9.3140   -0.2360   22.8890 C   0  0  1  0  0  0  0  0  0  0  0  0
   10.8320   -0.0010   22.9470 C   0  0  0  0  0  0  0  0  0  0  0  0
   11.6900   -0.7340   22.1280 C   0  0  0  0  0  0  0  0  0  0  0  0
   13.0530   -0.4990   22.1830 C   0  0  0  0  0  0  0  0  0  0  0  0
   14.1020   -1.3640   21.0950 Cl  0  0  0  0  0  0  0  0  0  0  0  0
   13.5980    0.4270   23.0410 C   0  0  0  0  0  0  0  0  0  0  0  0
   12.7650    1.1570   23.8680 C   0  0  0  0  0  0  0  0  0  0  0  0
   11.3990    0.9430   23.8170 C   0  0  0  0  0  0  0  0  0  0  0  0
   10.6570    1.6970   24.6930 O   0  0  0  0  0  0  0  0  0  0  0  0
    9.2690    1.8380   24.3480 C   0  0  0  0  0  0  0  0  0  0  0  0
    8.6400    0.4890   24.0790 C   0  0  0  0  0  0  0  0  0  0  0  0
    9.0030   -1.7560   22.9810 C   0  0  0  0  0  0  0  0  0  0  0  0
    7.6090   -2.0500   23.3270 N   0  0  0  0  0  0  0  0  0  0  0  0
    7.2050   -3.4070   22.9900 C   0  0  0  0  0  0  0  0  0  0  0  0
    7.4440   -4.2850   24.1770 C   0  0  0  0  0  0  0  0  0  0  0  0
    6.5420   -4.6490   25.2200 C   0  0  0  0  0  0  0  0  0  0  0  0
    7.2800   -5.3880   26.0910 C   0  0  0  0  0  0  0  0  0  0  0  0
    8.6680   -4.7950   24.3920 N   0  0  0  0  0  0  0  0  0  0  0  0
    8.5550   -5.4500   25.5760 N   0  0  0  0  0  0  0  0  0  0  0  0
    9.7400   -6.0430   26.1800 C   0  0  0  0  0  0  0  0  0  0  0  0
  2  1  2  0
  3  2  1  0
  4  3  1  0
  5  4  1  0
  6  5  2  0
  7  6  1  0
  8  7  2  0
  9  8  1  0
 10  9  2  0
 10  5  1  0
 11 10  1  0
 12 11  2  0
 13 12  1  0
 13  4  2  0
 14  2  1  0
 15 14  1  0
 16 15  2  0
 17 16  1  0
 18 17  1  0
 19 17  2  0
 20 19  1  0
 21 15  1  0
 21 20  2  0
 22 21  1  0
 23 22  1  0
 24 23  1  0
 24 14  1  0
 14 25  1  1
 26 25  1  0
 27 26  1  0
 28 27  1  0
 29 28  1  0
 30 29  2  0
 31 28  2  0
 32 31  1  0
 32 30  1  0
 33 32  1  0
M  END
