
     RDKit          3D

 25 28  0  0  0  0  0  0  0  0999 V2000
   14.2690   -1.4010   20.9060 Cl  0  0  0  0  0  0  0  0  0  0  0  0
   13.1630   -0.6280   22.0050 C   0  0  0  0  0  0  0  0  0  0  0  0
   13.6400    0.3070   22.8980 C   0  0  0  0  0  0  0  0  0  0  0  0
   12.7650    0.8790   23.8050 C   0  0  0  0  0  0  0  0  0  0  0  0
   11.8290   -0.9790   21.9640 C   0  0  0  0  0  0  0  0  0  0  0  0
   10.9290   -0.3880   22.8470 C   0  0  0  0  0  0  0  0  0  0  0  0
   11.4220    0.5280   23.7790 C   0  0  0  0  0  0  0  0  0  0  0  0
   10.6360    1.0940   24.7570 O   0  0  0  0  0  0  0  0  0  0  0  0
    9.2170    1.0880   24.5060 C   0  0  0  0  0  0  0  0  0  0  0  0
    8.7290   -0.2680   24.0670 C   0  0  0  0  0  0  0  0  0  0  0  0
    9.4440   -0.6830   22.7710 C   0  0  1  0  0  0  0  0  0  0  0  0
    8.8630    0.0720   21.5740 C   0  0  0  0  0  0  0  0  0  0  0  0
    9.3960    1.0770   21.1110 O   0  0  0  0  0  0  0  0  0  0  0  0
    7.6490   -0.3560   21.1850 N   0  0  0  0  0  0  0  0  0  0  0  0
    6.8600   -0.1140   20.0490 C   0  0  0  0  0  0  0  0  0  0  0  0
    7.3490   -0.0270   18.7470 C   0  0  0  0  0  0  0  0  0  0  0  0
    6.6620    0.4760   17.7140 N   0  0  0  0  0  0  0  0  0  0  0  0
    5.4350    0.9550   17.9510 C   0  0  0  0  0  0  0  0  0  0  0  0
    5.5670    0.3740   20.2780 C   0  0  0  0  0  0  0  0  0  0  0  0
    4.8670    0.7230   21.4450 N   0  0  0  0  0  0  0  0  0  0  0  0
    5.2200    0.4060   22.8250 C   0  0  0  0  0  0  0  0  0  0  0  0
    4.8690    0.9450   19.2190 C   0  0  0  0  0  0  0  0  0  0  0  0
    3.7590    1.5880   19.7500 N   0  0  0  0  0  0  0  0  0  0  0  0
    3.7470    1.4640   21.1100 C   0  0  0  0  0  0  0  0  0  0  0  0
    2.9230    1.9120   21.8940 O   0  0  0  0  0  0  0  0  0  0  0  0
  2  1  1  0
  3  2  2  0
  4  3  1  0
  5  2  1  0
  6  5  2  0
  7  6  1  0
  7  4  2  0
  8  7  1  0
  9  8  1  0
 10  9  1  0
 11 10  1  0
 11  6  1  0
 11 12  1  6
 13 12  2  0
 14 12  1  0
 15 14  1  0
 16 15  2  0
 17 16  1  0
 18 17  2  0
 19 15  1  0
 20 19  1  0
 21 20  1  0
 22 18  1  0
 22 19  2  0
 23 22  1  0
 24 23  1  0
 24 20  1  0
 25 24  2  0
M  END
