
     RDKit          3D

 21 23  0  0  0  0  0  0  0  0999 V2000
    9.0090    0.8420   21.0820 O   0  0  0  0  0  0  0  0  0  0  0  0
    8.4650   -0.1890   21.4770 C   0  0  0  0  0  0  0  0  0  0  0  0
    9.0580   -1.0440   22.5780 C   0  0  0  0  0  0  0  0  0  0  0  0
   10.5110   -0.7280   22.8430 C   0  0  0  0  0  0  0  0  0  0  0  0
   11.5170   -1.4120   22.1770 C   0  0  0  0  0  0  0  0  0  0  0  0
   12.8510   -1.1230   22.4030 C   0  0  0  0  0  0  0  0  0  0  0  0
   10.8700    0.2580   23.7540 C   0  0  0  0  0  0  0  0  0  0  0  0
   12.1990    0.5600   23.9950 C   0  0  0  0  0  0  0  0  0  0  0  0
   13.1560   -0.1460   23.3140 C   0  0  0  0  0  0  0  0  0  0  0  0
   14.4620    0.0890   23.6000 F   0  0  0  0  0  0  0  0  0  0  0  0
    7.3040   -0.6570   20.9790 N   0  0  0  0  0  0  0  0  0  0  0  0
    6.5610   -0.1220   19.9170 C   0  0  0  0  0  0  0  0  0  0  0  0
    5.4510    0.7250   20.2200 C   0  0  0  0  0  0  0  0  0  0  0  0
    4.9700    0.9580   21.5370 C   0  0  0  0  0  0  0  0  0  0  0  0
    3.9140    1.7960   21.7610 C   0  0  0  0  0  0  0  0  0  0  0  0
    3.2830    2.4380   20.7020 C   0  0  0  0  0  0  0  0  0  0  0  0
    3.7020    2.2370   19.4180 C   0  0  0  0  0  0  0  0  0  0  0  0
    4.7940    1.3760   19.1410 C   0  0  0  0  0  0  0  0  0  0  0  0
    5.2790    1.1330   17.8320 C   0  0  0  0  0  0  0  0  0  0  0  0
    6.3040    0.3380   17.5510 N   0  0  0  0  0  0  0  0  0  0  0  0
    6.9160   -0.2700   18.5760 C   0  0  0  0  0  0  0  0  0  0  0  0
  2  1  2  0
  3  2  1  0
  4  3  1  0
  5  4  2  0
  6  5  1  0
  7  4  1  0
  8  7  2  0
  9  8  1  0
  9  6  2  0
 10  9  1  0
 11  2  1  0
 12 11  1  0
 13 12  1  0
 14 13  2  0
 15 14  1  0
 16 15  2  0
 17 16  1  0
 18 17  2  0
 18 13  1  0
 19 18  1  0
 20 19  2  0
 21 20  1  0
 21 12  2  0
M  END
