
     RDKit          3D

 27 30  0  0  0  0  0  0  0  0999 V2000
   14.2000   -1.5160   21.1620 Cl  0  0  0  0  0  0  0  0  0  0  0  0
   12.9360   -0.7850   22.1140 C   0  0  0  0  0  0  0  0  0  0  0  0
   11.6320   -1.1830   21.9080 C   0  0  0  0  0  0  0  0  0  0  0  0
   13.2590    0.1900   23.0320 C   0  0  0  0  0  0  0  0  0  0  0  0
   12.2530    0.7710   23.7840 C   0  0  0  0  0  0  0  0  0  0  0  0
   10.9320    0.3610   23.6180 C   0  0  0  0  0  0  0  0  0  0  0  0
    9.9240    0.7940   24.5210 N   0  0  0  0  0  0  0  0  0  0  0  0
   10.1670    1.4760   25.6780 C   0  0  0  0  0  0  0  0  0  0  0  0
   10.5910    0.8940   26.6670 O   0  0  0  0  0  0  0  0  0  0  0  0
    9.8910    2.9500   25.6750 C   0  0  0  0  0  0  0  0  0  0  0  0
   10.6060   -0.5980   22.6450 C   0  0  0  0  0  0  0  0  0  0  0  0
    9.1690   -0.9800   22.3560 C   0  0  1  0  0  0  0  0  0  0  0  0
    8.3670   -0.9050   23.6630 C   0  0  0  0  0  0  0  0  0  0  0  0
    8.5090    0.4910   24.2480 C   0  0  0  0  0  0  0  0  0  0  0  0
    8.5660   -0.0720   21.2810 C   0  0  0  0  0  0  0  0  0  0  0  0
    9.0830    0.9970   20.9580 O   0  0  0  0  0  0  0  0  0  0  0  0
    7.4300   -0.5470   20.7210 N   0  0  0  0  0  0  0  0  0  0  0  0
    6.6700    0.0300   19.6880 C   0  0  0  0  0  0  0  0  0  0  0  0
    5.5540    0.8510   20.0380 C   0  0  0  0  0  0  0  0  0  0  0  0
    5.1300    1.0800   21.3720 C   0  0  0  0  0  0  0  0  0  0  0  0
    4.0770    1.9070   21.6430 C   0  0  0  0  0  0  0  0  0  0  0  0
    3.3930    2.5430   20.6140 C   0  0  0  0  0  0  0  0  0  0  0  0
    3.7610    2.3520   19.3130 C   0  0  0  0  0  0  0  0  0  0  0  0
    4.8470    1.5020   18.9890 C   0  0  0  0  0  0  0  0  0  0  0  0
    5.2920    1.2840   17.6640 C   0  0  0  0  0  0  0  0  0  0  0  0
    6.3270    0.5210   17.3400 N   0  0  0  0  0  0  0  0  0  0  0  0
    6.9840   -0.0860   18.3340 C   0  0  0  0  0  0  0  0  0  0  0  0
  2  1  1  0
  3  2  2  0
  4  2  1  0
  5  4  2  0
  6  5  1  0
  7  6  1  0
  8  7  1  0
  9  8  2  0
 10  8  1  0
 11  6  2  0
 11  3  1  0
 12 11  1  0
 13 12  1  0
 14 13  1  0
 14  7  1  0
 12 15  1  6
 16 15  2  0
 17 15  1  0
 18 17  1  0
 19 18  1  0
 20 19  2  0
 21 20  1  0
 22 21  2  0
 23 22  1  0
 24 23  2  0
 24 19  1  0
 25 24  1  0
 26 25  2  0
 27 26  1  0
 27 18  2  0
M  END
