
     RDKit          3D

 26 29  0  0  0  0  0  0  0  0999 V2000
   13.8920   -1.7170   21.3990 Cl  0  0  0  0  0  0  0  0  0  0  0  0
   12.6230   -1.0750   22.3910 C   0  0  0  0  0  0  0  0  0  0  0  0
   12.9200   -0.1980   23.4080 C   0  0  0  0  0  0  0  0  0  0  0  0
   14.2110    0.1030   23.6570 F   0  0  0  0  0  0  0  0  0  0  0  0
   11.9390    0.3780   24.1730 C   0  0  0  0  0  0  0  0  0  0  0  0
   11.3070   -1.4000   22.1310 C   0  0  0  0  0  0  0  0  0  0  0  0
   10.2760   -0.8340   22.8790 C   0  0  0  0  0  0  0  0  0  0  0  0
   10.6200    0.0540   23.9060 C   0  0  0  0  0  0  0  0  0  0  0  0
    9.6950    0.6220   24.7530 O   0  0  0  0  0  0  0  0  0  0  0  0
    8.2990    0.4410   24.4220 C   0  0  0  0  0  0  0  0  0  0  0  0
    8.0140   -0.9420   23.8950 C   0  0  0  0  0  0  0  0  0  0  0  0
    8.8240   -1.1810   22.6100 C   0  0  1  0  0  0  0  0  0  0  0  0
    8.3650   -0.2880   21.4540 C   0  0  0  0  0  0  0  0  0  0  0  0
    9.0970    0.5630   20.9580 O   0  0  0  0  0  0  0  0  0  0  0  0
    7.0670   -0.4340   21.1130 N   0  0  0  0  0  0  0  0  0  0  0  0
    6.3930   -0.0690   19.9330 C   0  0  0  0  0  0  0  0  0  0  0  0
    6.9300   -0.0810   18.6450 C   0  0  0  0  0  0  0  0  0  0  0  0
    6.3920    0.5090   17.5700 N   0  0  0  0  0  0  0  0  0  0  0  0
    5.2740    1.1890   17.7460 C   0  0  0  0  0  0  0  0  0  0  0  0
    5.1800    0.6640   20.1170 C   0  0  0  0  0  0  0  0  0  0  0  0
    4.6000    0.8740   21.3930 C   0  0  0  0  0  0  0  0  0  0  0  0
    3.5590    1.7340   21.5060 C   0  0  0  0  0  0  0  0  0  0  0  0
    3.0380    1.9540   22.7440 F   0  0  0  0  0  0  0  0  0  0  0  0
    4.6210    1.3340   18.9930 C   0  0  0  0  0  0  0  0  0  0  0  0
    3.5220    2.2040   19.1930 C   0  0  0  0  0  0  0  0  0  0  0  0
    3.0080    2.4030   20.4390 C   0  0  0  0  0  0  0  0  0  0  0  0
  2  1  1  0
  3  2  2  0
  4  3  1  0
  5  3  1  0
  6  2  1  0
  7  6  2  0
  8  7  1  0
  8  5  2  0
  9  8  1  0
 10  9  1  0
 11 10  1  0
 12 11  1  0
 12  7  1  0
 12 13  1  6
 14 13  2  0
 15 13  1  0
 16 15  1  0
 17 16  2  0
 18 17  1  0
 19 18  2  0
 20 16  1  0
 21 20  2  0
 22 21  1  0
 23 22  1  0
 24 20  1  0
 24 19  1  0
 25 24  2  0
 26 25  1  0
 26 22  2  0
M  END
