
     RDKit          3D

 20 22  0  0  0  0  0  0  0  0999 V2000
    9.1340    1.0070   21.3850 O   0  0  0  0  0  0  0  0  0  0  0  0
    8.7340   -0.0810   21.7980 C   0  0  0  0  0  0  0  0  0  0  0  0
    9.3260   -0.7480   23.0250 C   0  0  0  0  0  0  0  0  0  0  0  0
   10.8050   -0.4590   23.1690 C   0  0  0  0  0  0  0  0  0  0  0  0
   11.2560    0.5250   24.0400 C   0  0  0  0  0  0  0  0  0  0  0  0
   12.5890    0.9040   24.0560 C   0  0  0  0  0  0  0  0  0  0  0  0
   13.4980    0.2990   23.2010 C   0  0  0  0  0  0  0  0  0  0  0  0
   11.7270   -1.1000   22.3450 C   0  0  0  0  0  0  0  0  0  0  0  0
   13.0530   -0.7110   22.3700 C   0  0  0  0  0  0  0  0  0  0  0  0
   14.1960   -1.5380   21.3470 Cl  0  0  0  0  0  0  0  0  0  0  0  0
    7.7040   -0.7610   21.2110 N   0  0  0  0  0  0  0  0  0  0  0  0
    7.0660   -0.3280   20.0470 C   0  0  0  0  0  0  0  0  0  0  0  0
    5.9280    0.4570   20.0800 N   0  0  0  0  0  0  0  0  0  0  0  0
    5.6320    0.7610   18.7500 C   0  0  0  0  0  0  0  0  0  0  0  0
    6.5150    0.1970   17.9230 N   0  0  0  0  0  0  0  0  0  0  0  0
    7.3940   -0.4730   18.7380 C   0  0  0  0  0  0  0  0  0  0  0  0
    5.1720    0.9450   21.1300 C   0  0  0  0  0  0  0  0  0  0  0  0
    4.1250    1.7590   20.8730 C   0  0  0  0  0  0  0  0  0  0  0  0
    3.7990    2.1020   19.5350 C   0  0  0  0  0  0  0  0  0  0  0  0
    4.5250    1.6080   18.4900 C   0  0  0  0  0  0  0  0  0  0  0  0
  2  1  2  0
  3  2  1  0
  4  3  1  0
  5  4  2  0
  6  5  1  0
  7  6  2  0
  8  4  1  0
  9  8  2  0
  9  7  1  0
 10  9  1  0
 11  2  1  0
 12 11  1  0
 13 12  1  0
 14 13  1  0
 15 14  2  0
 16 15  1  0
 16 12  2  0
 17 13  1  0
 18 17  2  0
 19 18  1  0
 20 19  2  0
 20 14  1  0
M  END
