
     RDKit          3D

 27 31  0  0  0  0  0  0  0  0999 V2000
    9.1410    1.6720   21.0260 O   0  0  0  0  0  0  0  0  0  0  0  0
    8.8250    0.6000   21.4990 C   0  0  0  0  0  0  0  0  0  0  0  0
    9.4370   -0.0570   22.7580 C   0  0  2  0  0  0  0  0  0  0  0  0
    8.7980    0.6700   23.9630 C   0  0  0  0  0  0  0  0  0  0  0  0
    9.8090    1.1310   24.9950 C   0  0  0  0  0  0  0  0  0  0  0  0
   10.9290    1.7980   24.3980 O   0  0  0  0  0  0  0  0  0  0  0  0
   10.9590    0.0320   22.7340 C   0  0  0  0  0  0  0  0  0  0  0  0
   11.6070    0.9910   23.5210 C   0  0  0  0  0  0  0  0  0  0  0  0
   12.9830    1.1420   23.5080 C   0  0  0  0  0  0  0  0  0  0  0  0
   13.7450    0.3240   22.6950 C   0  0  0  0  0  0  0  0  0  0  0  0
   11.7440   -0.8010   21.9350 C   0  0  0  0  0  0  0  0  0  0  0  0
   13.1190   -0.6210   21.9110 C   0  0  0  0  0  0  0  0  0  0  0  0
   14.0760   -1.5500   20.7860 Cl  0  0  0  0  0  0  0  0  0  0  0  0
    7.8830   -0.3010   20.9990 N   0  0  0  0  0  0  0  0  0  0  0  0
    7.9460   -1.5250   21.6750 C   0  0  0  0  0  0  0  0  0  0  0  0
    7.2540   -2.5020   21.4360 O   0  0  0  0  0  0  0  0  0  0  0  0
    8.9090   -1.4110   22.6220 N   0  0  0  0  0  0  0  0  0  0  0  0
    6.9590    0.0010   19.9240 C   0  0  0  0  0  0  0  0  0  0  0  0
    5.8060    0.8030   20.1920 C   0  0  0  0  0  0  0  0  0  0  0  0
    5.3260    1.1210   21.4900 C   0  0  0  0  0  0  0  0  0  0  0  0
    4.2230    1.9100   21.6620 C   0  0  0  0  0  0  0  0  0  0  0  0
    3.5390    2.4180   20.5670 C   0  0  0  0  0  0  0  0  0  0  0  0
    3.9560    2.1400   19.2970 C   0  0  0  0  0  0  0  0  0  0  0  0
    5.0950    1.3290   19.0730 C   0  0  0  0  0  0  0  0  0  0  0  0
    5.5790    1.0220   17.7770 C   0  0  0  0  0  0  0  0  0  0  0  0
    6.6500    0.2800   17.5380 N   0  0  0  0  0  0  0  0  0  0  0  0
    7.3150   -0.2100   18.5950 C   0  0  0  0  0  0  0  0  0  0  0  0
  2  1  2  0
  3  2  1  0
  3  4  1  1
  5  4  1  0
  6  5  1  0
  7  3  1  0
  8  7  2  0
  8  6  1  0
  9  8  1  0
 10  9  2  0
 11  7  1  0
 12 11  2  0
 12 10  1  0
 13 12  1  0
 14  2  1  0
 15 14  1  0
 16 15  2  0
 17 15  1  0
 17  3  1  0
 18 14  1  0
 19 18  1  0
 20 19  2  0
 21 20  1  0
 22 21  2  0
 23 22  1  0
 24 23  2  0
 24 19  1  0
 25 24  1  0
 26 25  2  0
 27 26  1  0
 27 18  2  0
M  END
