
     RDKit          3D

 22 24  0  0  0  0  0  0  0  0999 V2000
    8.9300    0.5850   21.2630 O   0  0  0  0  0  0  0  0  0  0  0  0
    8.3740   -0.5000   21.4160 C   0  0  0  0  0  0  0  0  0  0  0  0
    7.3580   -0.9380   20.6460 N   0  0  0  0  0  0  0  0  0  0  0  0
    6.6530   -0.2310   19.6550 C   0  0  0  0  0  0  0  0  0  0  0  0
    5.5190    0.5410   20.0470 C   0  0  0  0  0  0  0  0  0  0  0  0
    5.0670    0.6550   21.3860 C   0  0  0  0  0  0  0  0  0  0  0  0
    3.9970    1.4430   21.7000 C   0  0  0  0  0  0  0  0  0  0  0  0
    3.3230    2.1460   20.7140 C   0  0  0  0  0  0  0  0  0  0  0  0
    3.7140    2.0640   19.4120 C   0  0  0  0  0  0  0  0  0  0  0  0
    4.8200    1.2610   19.0410 C   0  0  0  0  0  0  0  0  0  0  0  0
    5.2920    1.1600   17.7120 C   0  0  0  0  0  0  0  0  0  0  0  0
    6.3470    0.4470   17.3500 N   0  0  0  0  0  0  0  0  0  0  0  0
    7.0000   -0.2210   18.3080 C   0  0  0  0  0  0  0  0  0  0  0  0
    8.7750   -1.4310   22.5400 C   0  0  0  0  0  0  0  0  0  0  0  0
   10.2050   -1.1680   22.9330 C   0  0  0  0  0  0  0  0  0  0  0  0
   11.2340   -1.4080   22.0850 C   0  0  0  0  0  0  0  0  0  0  0  0
   12.5330   -0.8910   22.3280 C   0  0  0  0  0  0  0  0  0  0  0  0
   13.5320   -1.1170   21.4310 C   0  0  0  0  0  0  0  0  0  0  0  0
   14.3890   -1.3190   20.6380 C   0  0  0  0  0  0  0  0  0  0  0  0
   12.7200   -0.1240   23.5320 C   0  0  0  0  0  0  0  0  0  0  0  0
   11.6860    0.0540   24.4110 C   0  0  0  0  0  0  0  0  0  0  0  0
   10.4270   -0.4690   24.1280 C   0  0  0  0  0  0  0  0  0  0  0  0
  2  1  2  0
  3  2  1  0
  4  3  1  0
  5  4  1  0
  6  5  2  0
  7  6  1  0
  8  7  2  0
  9  8  1  0
 10  9  2  0
 10  5  1  0
 11 10  1  0
 12 11  2  0
 13 12  1  0
 13  4  2  0
 14  2  1  0
 15 14  1  0
 16 15  2  0
 17 16  1  0
 18 17  1  0
 19 18  3  0
 20 17  2  0
 21 20  1  0
 22 15  1  0
 22 21  2  0
M  END
