
     RDKit          3D

 30 33  0  0  0  0  0  0  0  0999 V2000
   22.6660    8.2030   -2.0950 O   0  0  0  0  0  0  0  0  0  0  0  0
   21.8440    7.4440   -1.6040 C   0  0  0  0  0  0  0  0  0  0  0  0
   21.8880    5.9370   -1.8670 C   0  0  1  0  0  0  0  0  0  0  0  0
   22.9090    5.6920   -2.9840 C   0  0  0  0  0  0  0  0  0  0  0  0
   22.5390    5.8240   -4.3210 C   0  0  0  0  0  0  0  0  0  0  0  0
   23.4820    5.6330   -5.3100 C   0  0  0  0  0  0  0  0  0  0  0  0
   23.0090    5.8570   -6.9720 Cl  0  0  0  0  0  0  0  0  0  0  0  0
   24.7900    5.3170   -5.0200 C   0  0  0  0  0  0  0  0  0  0  0  0
   25.1800    5.1900   -3.6980 C   0  0  0  0  0  0  0  0  0  0  0  0
   24.2400    5.3580   -2.6930 C   0  0  0  0  0  0  0  0  0  0  0  0
   24.6880    5.0930   -1.4190 O   0  0  0  0  0  0  0  0  0  0  0  0
   23.9180    5.6830   -0.3590 C   0  0  0  0  0  0  0  0  0  0  0  0
   22.4390    5.4020   -0.5240 C   0  0  0  0  0  0  0  0  0  0  0  0
   20.5430    5.2280   -2.1940 C   0  0  0  0  0  0  0  0  0  0  0  0
   19.5690    5.9740   -3.0900 C   0  0  0  0  0  0  0  0  0  0  0  0
   19.7810    7.1290   -3.4250 O   0  0  0  0  0  0  0  0  0  0  0  0
   18.4610    5.3240   -3.4970 N   0  0  0  0  0  0  0  0  0  0  0  0
   18.2190    3.8880   -3.3390 C   0  0  0  0  0  0  0  0  0  0  0  0
   17.3850    6.0500   -4.1700 C   0  0  0  0  0  0  0  0  0  0  0  0
   20.8510    7.7950   -0.7710 N   0  0  0  0  0  0  0  0  0  0  0  0
   20.5460    9.0760   -0.3000 C   0  0  0  0  0  0  0  0  0  0  0  0
   21.0580    9.4610    0.9750 C   0  0  0  0  0  0  0  0  0  0  0  0
   21.8970    8.6390    1.7720 C   0  0  0  0  0  0  0  0  0  0  0  0
   22.3230    9.0520    3.0030 C   0  0  0  0  0  0  0  0  0  0  0  0
   21.9410   10.2840    3.5050 C   0  0  0  0  0  0  0  0  0  0  0  0
   21.1550   11.1220    2.7650 C   0  0  0  0  0  0  0  0  0  0  0  0
   20.6980   10.7370    1.4780 C   0  0  0  0  0  0  0  0  0  0  0  0
   19.8770   11.5540    0.6620 C   0  0  0  0  0  0  0  0  0  0  0  0
   19.4190   11.2030   -0.5360 N   0  0  0  0  0  0  0  0  0  0  0  0
   19.7460    9.9870   -0.9930 C   0  0  0  0  0  0  0  0  0  0  0  0
  2  1  2  0
  3  2  1  0
  4  3  1  0
  5  4  2  0
  6  5  1  0
  7  6  1  0
  8  6  2  0
  9  8  1  0
 10  9  2  0
 10  4  1  0
 11 10  1  0
 12 11  1  0
 13 12  1  0
 13  3  1  0
  3 14  1  6
 15 14  1  0
 16 15  2  0
 17 15  1  0
 18 17  1  0
 19 17  1  0
 20  2  1  0
 21 20  1  0
 22 21  1  0
 23 22  2  0
 24 23  1  0
 25 24  2  0
 26 25  1  0
 27 22  1  0
 27 26  2  0
 28 27  1  0
 29 28  2  0
 30 21  2  0
 30 29  1  0
M  END
