
     RDKit          3D

 24 27  0  0  0  0  0  0  0  0999 V2000
    8.8760    0.6980   21.1840 O   0  0  0  0  0  0  0  0  0  0  0  0
    8.4280   -0.4400   21.2790 C   0  0  0  0  0  0  0  0  0  0  0  0
    8.9310   -1.4110   22.3280 C   0  0  0  0  0  0  0  0  0  0  0  0
   10.3500   -1.0160   22.6640 C   0  0  0  0  0  0  0  0  0  0  0  0
   10.6230   -0.0710   23.6550 C   0  0  0  0  0  0  0  0  0  0  0  0
    9.6920    0.5400   24.4630 O   0  0  0  0  0  0  0  0  0  0  0  0
   10.4260    1.4130   25.3680 C   0  0  0  0  0  0  0  0  0  0  0  0
   11.8860    1.4450   24.9140 C   0  0  0  0  0  0  0  0  0  0  0  0
   11.9180    0.3640   23.8700 C   0  0  0  0  0  0  0  0  0  0  0  0
   12.9690   -0.1570   23.1250 C   0  0  0  0  0  0  0  0  0  0  0  0
   11.4100   -1.5410   21.9300 C   0  0  0  0  0  0  0  0  0  0  0  0
   12.6980   -1.1140   22.1730 C   0  0  0  0  0  0  0  0  0  0  0  0
   14.0130   -1.8200   21.2760 Cl  0  0  0  0  0  0  0  0  0  0  0  0
    7.5700   -0.9580   20.3990 N   0  0  0  0  0  0  0  0  0  0  0  0
    6.6360   -0.3460   19.5520 C   0  0  0  0  0  0  0  0  0  0  0  0
    5.6090    0.5340   20.0260 C   0  0  0  0  0  0  0  0  0  0  0  0
    5.1450    0.5560   21.3680 C   0  0  0  0  0  0  0  0  0  0  0  0
    4.0280    1.2640   21.7140 C   0  0  0  0  0  0  0  0  0  0  0  0
    3.3290    1.9920   20.7670 C   0  0  0  0  0  0  0  0  0  0  0  0
    3.7500    2.0330   19.4710 C   0  0  0  0  0  0  0  0  0  0  0  0
    4.8960    1.3060   19.0630 C   0  0  0  0  0  0  0  0  0  0  0  0
    5.3020    1.2120   17.7140 C   0  0  0  0  0  0  0  0  0  0  0  0
    6.2820    0.4430   17.2870 N   0  0  0  0  0  0  0  0  0  0  0  0
    6.8970   -0.3280   18.1880 C   0  0  0  0  0  0  0  0  0  0  0  0
  2  1  2  0
  3  2  1  0
  4  3  1  0
  5  4  2  0
  6  5  1  0
  7  6  1  0
  8  7  1  0
  9  5  1  0
  9  8  1  0
 10  9  2  0
 11  4  1  0
 12 11  2  0
 12 10  1  0
 13 12  1  0
 14  2  1  0
 15 14  1  0
 16 15  1  0
 17 16  2  0
 18 17  1  0
 19 18  2  0
 20 19  1  0
 21 20  2  0
 21 16  1  0
 22 21  1  0
 23 22  2  0
 24 23  1  0
 24 15  2  0
M  END
