
     RDKit          3D

 27 30  0  0  0  0  0  0  0  0999 V2000
    3.8410    2.3150   23.0670 F   0  0  0  0  0  0  0  0  0  0  0  0
    4.2810    2.0130   21.8190 C   0  0  0  0  0  0  0  0  0  0  0  0
    3.5260    2.4340   20.7510 C   0  0  0  0  0  0  0  0  0  0  0  0
    3.9280    2.1130   19.4900 C   0  0  0  0  0  0  0  0  0  0  0  0
    5.4240    1.2900   21.6950 C   0  0  0  0  0  0  0  0  0  0  0  0
    5.8710    0.9300   20.3980 C   0  0  0  0  0  0  0  0  0  0  0  0
    5.1070    1.3580   19.2750 C   0  0  0  0  0  0  0  0  0  0  0  0
    5.5780    1.0160   17.9850 C   0  0  0  0  0  0  0  0  0  0  0  0
    6.6890    0.3310   17.7540 N   0  0  0  0  0  0  0  0  0  0  0  0
    7.3960   -0.0750   18.8160 C   0  0  0  0  0  0  0  0  0  0  0  0
    7.0610    0.1750   20.1500 C   0  0  0  0  0  0  0  0  0  0  0  0
    7.8650   -0.2210   21.2440 N   0  0  0  0  0  0  0  0  0  0  0  0
    9.0310    0.3540   21.6280 C   0  0  0  0  0  0  0  0  0  0  0  0
    9.5210    1.3230   21.0650 O   0  0  0  0  0  0  0  0  0  0  0  0
    9.7300   -0.2380   22.8940 C   0  0  1  0  0  0  0  0  0  0  0  0
    9.2340   -1.5650   23.0790 O   0  0  0  0  0  0  0  0  0  0  0  0
    9.9180   -2.6320   22.4080 C   0  0  0  0  0  0  0  0  0  0  0  0
   11.2420   -0.1260   22.8830 C   0  0  0  0  0  0  0  0  0  0  0  0
   12.0020   -0.6940   21.8620 C   0  0  0  0  0  0  0  0  0  0  0  0
   13.3670   -0.4750   21.8310 C   0  0  0  0  0  0  0  0  0  0  0  0
   14.3310   -1.3460   20.6730 Cl  0  0  0  0  0  0  0  0  0  0  0  0
   13.9940    0.3470   22.7420 C   0  0  0  0  0  0  0  0  0  0  0  0
   13.2510    0.9250   23.7560 C   0  0  0  0  0  0  0  0  0  0  0  0
   11.8920    0.6650   23.8330 C   0  0  0  0  0  0  0  0  0  0  0  0
   11.2440    1.1880   24.9250 O   0  0  0  0  0  0  0  0  0  0  0  0
    9.8850    1.5770   24.6610 C   0  0  0  0  0  0  0  0  0  0  0  0
    9.0540    0.4440   24.0950 C   0  0  0  0  0  0  0  0  0  0  0  0
  2  1  1  0
  3  2  2  0
  4  3  1  0
  5  2  1  0
  6  5  2  0
  7  4  2  0
  7  6  1  0
  8  7  1  0
  9  8  2  0
 10  9  1  0
 11 10  2  0
 11  6  1  0
 12 11  1  0
 13 12  1  0
 14 13  2  0
 15 13  1  0
 15 16  1  1
 17 16  1  0
 18 15  1  0
 19 18  2  0
 20 19  1  0
 21 20  1  0
 22 20  2  0
 23 22  1  0
 24 23  2  0
 24 18  1  0
 25 24  1  0
 26 25  1  0
 27 26  1  0
 27 15  1  0
M  END
