
     RDKit          3D

 16 17  0  0  0  0  0  0  0  0999 V2000
    6.8940   -2.7950   20.9160 N   0  0  0  0  0  0  0  0  0  0  0  0
    7.1720   -2.5880   18.4730 C   0  0  0  0  0  0  0  0  0  0  0  0
    5.8000   -4.2080   19.5540 O   0  0  0  0  0  0  0  0  0  0  0  0
    6.5580   -3.2520   19.6910 C   0  0  0  0  0  0  0  0  0  0  0  0
    7.7310   -1.6310   21.2090 C   0  0  0  0  0  0  0  0  0  0  0  0
    6.4590   -3.4550   22.1440 C   0  0  0  0  0  0  0  0  0  0  0  0
    7.6690   -3.8700   22.9450 C   0  0  0  0  0  0  0  0  0  0  0  0
    9.6630   -3.1140   24.0920 C   0  0  0  0  0  0  0  0  0  0  0  0
    9.3660   -4.1970   25.0840 C   0  0  0  0  0  0  0  0  0  0  0  0
    9.8010   -5.5170   25.0480 C   0  0  0  0  0  0  0  0  0  0  0  0
    9.5330   -6.2170   26.2460 C   0  0  0  0  0  0  0  0  0  0  0  0
    8.6370   -5.5180   27.0390 C   0  0  0  0  0  0  0  0  0  0  0  0
    8.9170   -2.0370   22.0550 C   0  0  0  0  0  0  0  0  0  0  0  0
    8.4960   -2.7100   23.2900 N   0  0  0  0  0  0  0  0  0  0  0  0
    8.3730   -3.9190   26.4730 S   0  0  0  0  0  0  0  0  0  0  0  0
    7.8110   -6.0970   28.4280 Cl  0  0  0  0  0  0  0  0  0  0  0  0
  4  3  2  0
  4  2  1  0
  4  1  1  0
  5  1  1  0
  6  1  1  0
  7  6  1  0
  9  8  1  0
 10  9  2  0
 11 10  1  0
 12 11  2  0
 13  5  1  0
 14 13  1  0
 14  8  1  0
 14  7  1  0
 15 12  1  0
 15  9  1  0
 16 12  1  0
M  END
