
     RDKit          3D

 20 22  0  0  0  0  0  0  0  0999 V2000
    8.6820    0.7730   20.7790 O   0  0  0  0  0  0  0  0  0  0  0  0
    8.2560   -0.3790   20.8230 C   0  0  0  0  0  0  0  0  0  0  0  0
    8.8960   -1.4540   21.6770 C   0  0  0  0  0  0  0  0  0  0  0  0
   10.1520   -0.9970   22.3760 C   0  0  0  0  0  0  0  0  0  0  0  0
   10.1010   -0.1950   23.5080 C   0  0  0  0  0  0  0  0  0  0  0  0
   11.2640    0.2980   24.0810 C   0  0  0  0  0  0  0  0  0  0  0  0
   12.4980   -0.0180   23.5330 C   0  0  0  0  0  0  0  0  0  0  0  0
   11.3920   -1.3430   21.8550 C   0  0  0  0  0  0  0  0  0  0  0  0
   12.5390   -0.8660   22.4440 C   0  0  0  0  0  0  0  0  0  0  0  0
   14.0740   -1.4480   21.8670 Cl  0  0  0  0  0  0  0  0  0  0  0  0
    7.2190   -0.8100   20.0500 N   0  0  0  0  0  0  0  0  0  0  0  0
    6.4360    0.0550   19.3220 C   0  0  0  0  0  0  0  0  0  0  0  0
    5.4270    0.7330   19.9430 C   0  0  0  0  0  0  0  0  0  0  0  0
    4.7990    1.4350   18.9180 N   0  0  0  0  0  0  0  0  0  0  0  0
    5.4770    1.1480   17.7620 C   0  0  0  0  0  0  0  0  0  0  0  0
    6.4840    0.3160   17.9580 N   0  0  0  0  0  0  0  0  0  0  0  0
    4.8980    0.8320   21.2550 C   0  0  0  0  0  0  0  0  0  0  0  0
    3.7830    1.5870   21.4730 C   0  0  0  0  0  0  0  0  0  0  0  0
    3.1610    2.2840   20.4100 C   0  0  0  0  0  0  0  0  0  0  0  0
    3.6630    2.2130   19.1590 C   0  0  0  0  0  0  0  0  0  0  0  0
  2  1  2  0
  3  2  1  0
  4  3  1  0
  5  4  2  0
  6  5  1  0
  7  6  2  0
  8  4  1  0
  9  8  2  0
  9  7  1  0
 10  9  1  0
 11  2  1  0
 12 11  1  0
 13 12  2  0
 14 13  1  0
 15 14  1  0
 16 15  2  0
 16 12  1  0
 17 13  1  0
 18 17  2  0
 19 18  1  0
 20 19  2  0
 20 14  1  0
M  END
