
     RDKit          3D

 24 27  0  0  0  0  0  0  0  0999 V2000
    9.2270    1.1010   20.9460 O   0  0  0  0  0  0  0  0  0  0  0  0
    8.6980    0.1090   21.4310 C   0  0  0  0  0  0  0  0  0  0  0  0
    9.3160   -0.5920   22.6720 C   0  0  1  0  0  0  0  0  0  0  0  0
   10.8170   -0.4610   22.6240 C   0  0  0  0  0  0  0  0  0  0  0  0
   11.7690   -1.1520   21.8860 C   0  0  0  0  0  0  0  0  0  0  0  0
   13.0900   -0.7500   21.9760 C   0  0  0  0  0  0  0  0  0  0  0  0
   14.2620   -1.4810   20.9130 Cl  0  0  0  0  0  0  0  0  0  0  0  0
   13.4910    0.2780   22.8170 C   0  0  0  0  0  0  0  0  0  0  0  0
   12.5480    0.9410   23.5850 C   0  0  0  0  0  0  0  0  0  0  0  0
   11.2120    0.5670   23.4710 C   0  0  0  0  0  0  0  0  0  0  0  0
   10.1090    1.1030   24.1300 N   0  0  0  0  0  0  0  0  0  0  0  0
    8.9930    0.1830   23.9700 C   0  0  0  0  0  0  0  0  0  0  0  0
    8.8980   -2.0720   22.7890 C   0  0  0  0  0  0  0  0  0  0  0  0
    7.5400   -0.4020   20.9520 N   0  0  0  0  0  0  0  0  0  0  0  0
    6.7680    0.1090   19.8850 C   0  0  0  0  0  0  0  0  0  0  0  0
    5.6430    0.9360   20.1940 C   0  0  0  0  0  0  0  0  0  0  0  0
    5.2310    1.2470   21.5160 C   0  0  0  0  0  0  0  0  0  0  0  0
    4.1710    2.0810   21.7470 C   0  0  0  0  0  0  0  0  0  0  0  0
    3.4680    2.6390   20.6880 C   0  0  0  0  0  0  0  0  0  0  0  0
    3.8240    2.3690   19.3950 C   0  0  0  0  0  0  0  0  0  0  0  0
    4.9160    1.5080   19.1120 C   0  0  0  0  0  0  0  0  0  0  0  0
    5.3420    1.2050   17.7960 C   0  0  0  0  0  0  0  0  0  0  0  0
    6.3800    0.4330   17.5080 N   0  0  0  0  0  0  0  0  0  0  0  0
    7.0640   -0.0910   18.5340 C   0  0  0  0  0  0  0  0  0  0  0  0
  2  1  2  0
  3  2  1  0
  4  3  1  0
  5  4  2  0
  6  5  1  0
  7  6  1  0
  8  6  2  0
  9  8  1  0
 10  4  1  0
 10  9  2  0
 11 10  1  0
 12 11  1  0
 12  3  1  0
  3 13  1  1
 14  2  1  0
 15 14  1  0
 16 15  1  0
 17 16  2  0
 18 17  1  0
 19 18  2  0
 20 19  1  0
 21 20  2  0
 21 16  1  0
 22 21  1  0
 23 22  2  0
 24 23  1  0
 24 15  2  0
M  END
