
     RDKit          3D

 36 40  0  0  0  0  0  0  0  0999 V2000
   13.7480   -1.4930   21.7150 Cl  0  0  0  0  0  0  0  0  0  0  0  0
   12.4580   -0.6790   22.5390 C   0  0  0  0  0  0  0  0  0  0  0  0
   12.7240    0.3140   23.4730 C   0  0  0  0  0  0  0  0  0  0  0  0
   14.3480    0.7430   23.8920 Cl  0  0  0  0  0  0  0  0  0  0  0  0
   11.6840    0.9430   24.1200 C   0  0  0  0  0  0  0  0  0  0  0  0
   10.3820    0.5700   23.8560 C   0  0  0  0  0  0  0  0  0  0  0  0
   11.1510   -1.0430   22.2560 C   0  0  0  0  0  0  0  0  0  0  0  0
   10.0950   -0.4210   22.9230 C   0  0  0  0  0  0  0  0  0  0  0  0
    8.6390   -0.8160   22.6300 C   0  0  2  0  0  0  0  0  0  0  0  0
    8.5740   -2.3120   22.2970 C   0  0  0  0  0  0  0  0  0  0  0  0
    8.1270    0.0830   21.4540 C   0  0  0  0  0  0  0  0  0  0  0  0
    7.2850   -0.5020   20.5760 N   0  0  0  0  0  0  0  0  0  0  0  0
    6.2920   -0.0250   19.6930 C   0  0  0  0  0  0  0  0  0  0  0  0
    5.3470    0.9900   20.0670 C   0  0  0  0  0  0  0  0  0  0  0  0
    4.9290    1.2300   21.4040 C   0  0  0  0  0  0  0  0  0  0  0  0
    3.9040    2.0930   21.6820 C   0  0  0  0  0  0  0  0  0  0  0  0
    3.2530    2.7720   20.6640 C   0  0  0  0  0  0  0  0  0  0  0  0
    3.6230    2.5890   19.3620 C   0  0  0  0  0  0  0  0  0  0  0  0
    4.6690    1.6900   19.0250 C   0  0  0  0  0  0  0  0  0  0  0  0
    4.9950    1.3630   17.6900 C   0  0  0  0  0  0  0  0  0  0  0  0
    5.8520    0.4200   17.3420 N   0  0  0  0  0  0  0  0  0  0  0  0
    6.4500   -0.2610   18.3270 C   0  0  0  0  0  0  0  0  0  0  0  0
    8.5220    1.2320   21.3170 O   0  0  0  0  0  0  0  0  0  0  0  0
    7.7960   -0.5650   23.8080 N   0  0  0  0  0  0  0  0  0  0  0  0
    7.0960    0.5410   24.1130 C   0  0  0  0  0  0  0  0  0  0  0  0
    7.3540    1.6570   23.6690 O   0  0  0  0  0  0  0  0  0  0  0  0
    5.9090    0.3230   25.0370 C   0  0  0  0  0  0  0  0  0  0  0  0
    5.9040    1.2200   26.1760 N   0  0  0  0  0  0  0  0  0  0  0  0
    4.9590    2.1820   26.3470 C   0  0  0  0  0  0  0  0  0  0  0  0
    3.9940    2.3700   25.6280 O   0  0  0  0  0  0  0  0  0  0  0  0
    5.3110    2.9370   27.4350 N   0  0  0  0  0  0  0  0  0  0  0  0
    6.7830    2.9140   27.5100 C   0  0  0  0  0  0  0  0  0  0  0  0
    7.1170    1.5480   26.9310 C   0  0  0  0  0  0  0  0  0  0  0  0
    4.6160    2.8560   28.7330 C   0  0  1  0  0  0  0  0  0  0  0  0
    3.2710    3.4840   28.8840 C   0  0  0  0  0  0  0  0  0  0  0  0
    3.4110    1.9900   28.8960 C   0  0  0  0  0  0  0  0  0  0  0  0
  2  1  1  0
  3  2  2  0
  4  3  1  0
  5  3  1  0
  6  5  2  0
  7  2  1  0
  8  6  1  0
  8  7  2  0
  9  8  1  0
  9 10  1  6
 11  9  1  0
 12 11  1  0
 13 12  1  0
 14 13  1  0
 15 14  2  0
 16 15  1  0
 17 16  2  0
 18 17  1  0
 19 18  2  0
 19 14  1  0
 20 19  1  0
 21 20  2  0
 22 21  1  0
 22 13  2  0
 23 11  2  0
 24  9  1  0
 25 24  1  0
 26 25  2  0
 27 25  1  0
 28 27  1  0
 29 28  1  0
 30 29  2  0
 31 29  1  0
 32 31  1  0
 33 28  1  0
 33 32  1  0
 34 31  1  6
 35 34  1  0
 36 35  1  0
 36 34  1  0
M  END
