
     RDKit          3D

 20 22  0  0  0  0  0  0  0  0999 V2000
   14.0070   -2.7000   23.7410 Cl  0  0  0  0  0  0  0  0  0  0  0  0
   12.9370   -1.3720   23.3940 C   0  0  0  0  0  0  0  0  0  0  0  0
   13.4000   -0.0830   23.5470 C   0  0  0  0  0  0  0  0  0  0  0  0
   12.5190    0.9700   23.3810 C   0  0  0  0  0  0  0  0  0  0  0  0
   11.1980    0.7330   23.0450 C   0  0  0  0  0  0  0  0  0  0  0  0
   11.6380   -1.6420   23.0040 C   0  0  0  0  0  0  0  0  0  0  0  0
   10.7610   -0.5740   22.8240 C   0  0  0  0  0  0  0  0  0  0  0  0
    9.4690   -0.7820   22.2610 N   0  0  0  0  0  0  0  0  0  0  0  0
    8.6350   -1.9450   22.5970 C   0  0  0  0  0  0  0  0  0  0  0  0
    7.3710   -1.7290   21.7910 C   0  0  0  0  0  0  0  0  0  0  0  0
    8.8630    0.0620   21.3550 C   0  0  0  0  0  0  0  0  0  0  0  0
    9.3130    1.1070   20.9330 O   0  0  0  0  0  0  0  0  0  0  0  0
    7.6410   -0.4920   21.0410 N   0  0  0  0  0  0  0  0  0  0  0  0
    6.7630    0.0180   20.0270 C   0  0  0  0  0  0  0  0  0  0  0  0
    5.5950    0.7220   20.3210 C   0  0  0  0  0  0  0  0  0  0  0  0
    5.0860    0.8890   21.7310 C   0  0  0  0  0  0  0  0  0  0  0  0
    7.1780   -0.0780   18.7010 C   0  0  0  0  0  0  0  0  0  0  0  0
    6.5250    0.4820   17.6790 N   0  0  0  0  0  0  0  0  0  0  0  0
    5.4050    1.1550   17.9680 C   0  0  0  0  0  0  0  0  0  0  0  0
    4.9120    1.2960   19.2520 C   0  0  0  0  0  0  0  0  0  0  0  0
  2  1  1  0
  3  2  2  0
  4  3  1  0
  5  4  2  0
  6  2  1  0
  7  6  2  0
  7  5  1  0
  8  7  1  0
  9  8  1  0
 10  9  1  0
 11  8  1  0
 12 11  2  0
 13 11  1  0
 13 10  1  0
 14 13  1  0
 15 14  2  0
 16 15  1  0
 17 14  1  0
 18 17  2  0
 19 18  1  0
 20 19  2  0
 20 15  1  0
M  END
