
     RDKit          3D

 28 31  0  0  0  0  0  0  0  0999 V2000
   14.0310   -1.4340   20.8210 Cl  0  0  0  0  0  0  0  0  0  0  0  0
   13.1390   -0.4740   21.9710 C   0  0  0  0  0  0  0  0  0  0  0  0
   13.8230    0.4030   22.7890 C   0  0  0  0  0  0  0  0  0  0  0  0
   13.1110    1.2120   23.6560 C   0  0  0  0  0  0  0  0  0  0  0  0
   11.7270    1.1340   23.6820 C   0  0  0  0  0  0  0  0  0  0  0  0
   11.0930    1.9600   24.5770 O   0  0  0  0  0  0  0  0  0  0  0  0
    9.8410    1.4350   25.0680 C   0  0  0  0  0  0  0  0  0  0  0  0
    8.8780    1.1720   23.9380 C   0  0  0  0  0  0  0  0  0  0  0  0
   11.7620   -0.5700   22.0000 C   0  0  0  0  0  0  0  0  0  0  0  0
   11.0280    0.2530   22.8520 C   0  0  0  0  0  0  0  0  0  0  0  0
    9.5110    0.2210   22.8980 C   0  0  2  0  0  0  0  0  0  0  0  0
    8.9470    0.5080   21.5070 C   0  0  0  0  0  0  0  0  0  0  0  0
    9.2610    1.5010   20.8860 O   0  0  0  0  0  0  0  0  0  0  0  0
    8.0090   -0.3900   20.9590 N   0  0  0  0  0  0  0  0  0  0  0  0
    7.9700   -1.7700   21.2600 C   0  0  0  0  0  0  0  0  0  0  0  0
    8.8930   -2.3010   21.8680 O   0  0  0  0  0  0  0  0  0  0  0  0
    6.8460   -2.5970   20.6670 C   0  0  0  0  0  0  0  0  0  0  0  0
    7.2720   -4.0160   20.3480 C   0  0  0  0  0  0  0  0  0  0  0  0
    7.1500    0.1160   19.9080 C   0  0  0  0  0  0  0  0  0  0  0  0
    7.4850   -0.0170   18.5630 C   0  0  0  0  0  0  0  0  0  0  0  0
    6.7450    0.4580   17.5520 N   0  0  0  0  0  0  0  0  0  0  0  0
    5.6280    1.1090   17.8590 C   0  0  0  0  0  0  0  0  0  0  0  0
    5.1760    1.3420   19.1840 C   0  0  0  0  0  0  0  0  0  0  0  0
    5.9580    0.8220   20.2550 C   0  0  0  0  0  0  0  0  0  0  0  0
    4.0000    2.0750   19.4840 C   0  0  0  0  0  0  0  0  0  0  0  0
    3.6140    2.2740   20.7800 C   0  0  0  0  0  0  0  0  0  0  0  0
    4.3690    1.7660   21.8280 C   0  0  0  0  0  0  0  0  0  0  0  0
    5.5110    1.0550   21.5830 C   0  0  0  0  0  0  0  0  0  0  0  0
  2  1  1  0
  3  2  2  0
  4  3  1  0
  5  4  2  0
  6  5  1  0
  7  6  1  0
  8  7  1  0
  9  2  1  0
 10  9  2  0
 10  5  1  0
 11  8  1  0
 11 10  1  0
 11 12  1  6
 13 12  2  0
 14 12  1  0
 15 14  1  0
 16 15  2  0
 17 15  1  0
 18 17  1  0
 19 14  1  0
 20 19  2  0
 21 20  1  0
 22 21  2  0
 23 22  1  0
 24 23  2  0
 24 19  1  0
 25 23  1  0
 26 25  2  0
 27 26  1  0
 28 27  2  0
 28 24  1  0
M  END
