
     RDKit          3D

 22 23  0  0  0  0  0  0  0  0999 V2000
   13.9750   -1.4640   21.5980 Cl  0  0  0  0  0  0  0  0  0  0  0  0
   12.6400   -0.8650   22.5430 C   0  0  0  0  0  0  0  0  0  0  0  0
   12.8900   -0.0370   23.6170 C   0  0  0  0  0  0  0  0  0  0  0  0
   11.8180    0.4620   24.3370 C   0  0  0  0  0  0  0  0  0  0  0  0
   10.5180    0.1330   23.9780 C   0  0  0  0  0  0  0  0  0  0  0  0
   11.3480   -1.2090   22.1790 C   0  0  0  0  0  0  0  0  0  0  0  0
   10.2720   -0.7060   22.8980 C   0  0  0  0  0  0  0  0  0  0  0  0
    8.8530   -1.0570   22.5000 C   0  0  0  0  0  0  0  0  0  0  0  0
    8.3190   -0.1500   21.4100 C   0  0  0  0  0  0  0  0  0  0  0  0
    8.9690    0.8040   20.9870 O   0  0  0  0  0  0  0  0  0  0  0  0
    7.0960   -0.4880   20.9410 N   0  0  0  0  0  0  0  0  0  0  0  0
    6.4750    0.0610   19.7920 C   0  0  0  0  0  0  0  0  0  0  0  0
    6.8740   -0.1550   18.4740 C   0  0  0  0  0  0  0  0  0  0  0  0
    6.2830    0.4080   17.4140 N   0  0  0  0  0  0  0  0  0  0  0  0
    5.2390    1.2130   17.6390 C   0  0  0  0  0  0  0  0  0  0  0  0
    4.7440    1.5060   18.8950 C   0  0  0  0  0  0  0  0  0  0  0  0
    5.3780    0.9290   19.9850 C   0  0  0  0  0  0  0  0  0  0  0  0
    4.8390    0.9430   21.2880 O   0  0  0  0  0  0  0  0  0  0  0  0
    4.8840    2.1620   22.1320 C   0  0  2  0  0  0  0  0  0  0  0  0
    3.7380    3.0780   21.7590 C   0  0  0  0  0  0  0  0  0  0  0  0
    6.2140    2.8730   21.9850 C   0  0  0  0  0  0  0  0  0  0  0  0
    4.7040    1.6300   23.5350 C   0  0  0  0  0  0  0  0  0  0  0  0
  2  1  1  0
  3  2  2  0
  4  3  1  0
  5  4  2  0
  6  2  1  0
  7  5  1  0
  7  6  2  0
  8  7  1  0
  9  8  1  0
 10  9  2  0
 11  9  1  0
 12 11  1  0
 13 12  2  0
 14 13  1  0
 15 14  2  0
 16 15  1  0
 17 16  2  0
 17 12  1  0
 18 17  1  0
 19 18  1  0
 19 20  1  6
 21 19  1  0
 22 19  1  0
M  END
