
     RDKit          3D

 27 30  0  0  0  0  0  0  0  0999 V2000
   13.9450   -1.4760   21.3330 Cl  0  0  0  0  0  0  0  0  0  0  0  0
   12.6480   -0.8310   22.2960 C   0  0  0  0  0  0  0  0  0  0  0  0
   11.3610   -1.2740   22.0680 C   0  0  0  0  0  0  0  0  0  0  0  0
   12.9280    0.1100   23.2610 C   0  0  0  0  0  0  0  0  0  0  0  0
   11.9010    0.5940   24.0500 C   0  0  0  0  0  0  0  0  0  0  0  0
   10.5980    0.1350   23.8650 C   0  0  2  0  0  0  0  0  0  0  0  0
    9.5870    0.4310   24.8130 N   0  0  0  0  0  0  0  0  0  0  0  0
    9.8260    0.8480   26.0880 C   0  0  0  0  0  0  0  0  0  0  0  0
   10.3610    0.1010   26.8950 O   0  0  0  0  0  0  0  0  0  0  0  0
    9.3980    2.2380   26.4530 C   0  0  0  0  0  0  0  0  0  0  0  0
   10.3120   -0.7700   22.8310 C   0  0  1  0  0  0  0  0  0  0  0  0
    8.8850   -1.1490   22.4820 C   0  0  1  0  0  0  0  0  0  0  0  0
    7.9970   -1.1100   23.7310 C   0  0  0  0  0  0  0  0  0  0  0  0
    8.1760    0.2260   24.4440 C   0  0  0  0  0  0  0  0  0  0  0  0
    8.3270   -0.2100   21.4110 C   0  0  0  0  0  0  0  0  0  0  0  0
    8.8190    0.8950   21.1890 O   0  0  0  0  0  0  0  0  0  0  0  0
    7.2610   -0.6970   20.7350 N   0  0  0  0  0  0  0  0  0  0  0  0
    6.5300   -0.0700   19.7080 C   0  0  0  0  0  0  0  0  0  0  0  0
    5.4310    0.7690   20.0670 C   0  0  0  0  0  0  0  0  0  0  0  0
    5.0100    0.9940   21.4030 C   0  0  0  0  0  0  0  0  0  0  0  0
    3.9490    1.8080   21.6780 C   0  0  0  0  0  0  0  0  0  0  0  0
    3.2530    2.4340   20.6510 C   0  0  0  0  0  0  0  0  0  0  0  0
    3.6160    2.2480   19.3490 C   0  0  0  0  0  0  0  0  0  0  0  0
    4.7160    1.4170   19.0200 C   0  0  0  0  0  0  0  0  0  0  0  0
    5.1510    1.1930   17.6930 C   0  0  0  0  0  0  0  0  0  0  0  0
    6.1760    0.4200   17.3620 N   0  0  0  0  0  0  0  0  0  0  0  0
    6.8370   -0.1900   18.3550 C   0  0  0  0  0  0  0  0  0  0  0  0
  2  1  1  0
  3  2  1  0
  4  2  1  0
  5  4  1  0
  6  5  1  1
  7  6  1  0
  8  7  1  0
  9  8  1  0
 10  8  1  0
 11  6  1  0
 11  3  1  6
 12 11  1  0
 13 12  1  0
 14 13  1  0
 14  7  1  0
 12 15  1  6
 16 15  1  0
 17 15  1  0
 18 17  1  0
 19 18  1  0
 20 19  1  0
 21 20  1  0
 22 21  1  0
 23 22  1  0
 24 23  1  0
 24 19  1  0
 25 24  1  0
 26 25  1  0
 27 26  1  0
 27 18  1  0
M  END
$$$$
