
     RDKit          3D

 22 24  0  0  0  0  0  0  0  0999 V2000
    9.3000    0.9330   21.1040 O   0  0  0  0  0  0  0  0  0  0  0  0
    8.7770   -0.1100   21.5080 C   0  0  0  0  0  0  0  0  0  0  0  0
    9.4440   -0.9910   22.5450 C   0  0  0  0  0  0  0  0  0  0  0  0
   10.8880   -0.6350   22.8090 C   0  0  0  0  0  0  0  0  0  0  0  0
   11.2280    0.4170   23.6390 C   0  0  0  0  0  0  0  0  0  0  0  0
   10.2260    1.0930   24.2470 F   0  0  0  0  0  0  0  0  0  0  0  0
   12.5240    0.8380   23.8340 C   0  0  0  0  0  0  0  0  0  0  0  0
   13.5400    0.2010   23.1460 C   0  0  0  0  0  0  0  0  0  0  0  0
   11.9180   -1.2690   22.1180 C   0  0  0  0  0  0  0  0  0  0  0  0
   13.2060   -0.8200   22.2920 C   0  0  0  0  0  0  0  0  0  0  0  0
   14.1830   -1.3610   21.5130 F   0  0  0  0  0  0  0  0  0  0  0  0
    7.5870   -0.5700   21.0630 N   0  0  0  0  0  0  0  0  0  0  0  0
    6.7990   -0.0380   20.0220 C   0  0  0  0  0  0  0  0  0  0  0  0
    5.6670    0.7680   20.3610 C   0  0  0  0  0  0  0  0  0  0  0  0
    5.2480    1.0230   21.6920 C   0  0  0  0  0  0  0  0  0  0  0  0
    4.1780    1.8360   21.9470 C   0  0  0  0  0  0  0  0  0  0  0  0
    3.4790    2.4320   20.9090 C   0  0  0  0  0  0  0  0  0  0  0  0
    3.8420    2.2170   19.6110 C   0  0  0  0  0  0  0  0  0  0  0  0
    4.9410    1.3780   19.3000 C   0  0  0  0  0  0  0  0  0  0  0  0
    5.3830    1.1390   17.9740 C   0  0  0  0  0  0  0  0  0  0  0  0
    6.4320    0.3890   17.6620 N   0  0  0  0  0  0  0  0  0  0  0  0
    7.1090   -0.1790   18.6700 C   0  0  0  0  0  0  0  0  0  0  0  0
  2  1  2  0
  3  2  1  0
  4  3  1  0
  5  4  2  0
  6  5  1  0
  7  5  1  0
  8  7  2  0
  9  4  1  0
 10  9  2  0
 10  8  1  0
 11 10  1  0
 12  2  1  0
 13 12  1  0
 14 13  1  0
 15 14  2  0
 16 15  1  0
 17 16  2  0
 18 17  1  0
 19 18  2  0
 19 14  1  0
 20 19  1  0
 21 20  2  0
 22 21  1  0
 22 13  2  0
M  END
