
     RDKit          3D

 32 35  0  0  0  0  0  0  0  0999 V2000
    9.3110    1.2130   20.9150 O   0  0  0  0  0  0  0  0  0  0  0  0
    8.7500    0.2950   21.4950 C   0  0  2  0  0  0  0  0  0  0  0  0
    7.5680   -0.2100   21.0740 N   0  0  0  0  0  0  0  0  0  0  0  0
    6.8160    0.2270   19.9670 C   0  0  1  0  0  0  0  0  0  0  0  0
    5.6640    1.0440   20.1960 C   0  0  0  0  0  0  0  0  0  0  0  0
    5.2090    1.4260   21.4860 C   0  0  0  0  0  0  0  0  0  0  0  0
    4.1200    2.2390   21.6350 C   0  0  0  0  0  0  0  0  0  0  0  0
    3.4340    2.7140   20.5240 C   0  0  0  0  0  0  0  0  0  0  0  0
    3.8300    2.3700   19.2630 C   0  0  0  0  0  0  0  0  0  0  0  0
    4.9510    1.5260   19.0640 C   0  0  0  0  0  0  0  0  0  0  0  0
    5.4270    1.1580   17.7820 C   0  0  0  0  0  0  0  0  0  0  0  0
    6.4950    0.4040   17.5710 N   0  0  0  0  0  0  0  0  0  0  0  0
    7.1600   -0.0440   18.6430 C   0  0  0  0  0  0  0  0  0  0  0  0
    9.3370   -0.2940   22.8000 C   0  0  1  0  0  0  0  0  0  0  0  0
   10.8490   -0.0700   22.8010 C   0  0  0  0  0  0  0  0  0  0  0  0
   11.7040   -0.8650   22.0400 C   0  0  0  0  0  0  0  0  0  0  0  0
   13.0660   -0.6260   22.0810 C   0  0  1  0  0  0  0  0  0  0  0  0
   14.1050   -1.4680   20.9620 Cl  0  0  0  0  0  0  0  0  0  0  0  0
   13.6110    0.3430   22.8960 C   0  0  0  0  0  0  0  0  0  0  0  0
   12.7740    1.1300   23.6630 C   0  0  0  0  0  0  0  0  0  0  0  0
   11.4070    0.9270   23.6000 C   0  0  0  0  0  0  0  0  0  0  0  0
   10.6400    1.7640   24.3670 O   0  0  0  0  0  0  0  0  0  0  0  0
    9.5090    1.1020   24.9360 C   0  0  0  0  0  0  0  0  0  0  0  0
    8.5840    0.5240   23.8800 C   0  0  0  0  0  0  0  0  0  0  0  0
    9.0110   -1.8020   22.8730 C   0  0  0  0  0  0  0  0  0  0  0  0
    9.3730   -2.4480   24.1230 N   0  0  0  0  0  0  0  0  0  0  0  0
    8.9770   -3.6870   24.4050 C   0  0  1  0  0  0  0  0  0  0  0  0
    8.2210   -4.3260   23.6750 O   0  0  0  0  0  0  0  0  0  0  0  0
    9.5910   -4.3110   25.6490 C   0  0  0  0  0  0  0  0  0  0  0  0
    8.7810   -4.1870   26.8660 N   0  0  0  0  0  0  0  0  0  0  0  0
    9.4970   -4.7260   28.0180 C   0  0  0  0  0  0  0  0  0  0  0  0
    7.5010   -4.8750   26.7130 C   0  0  0  0  0  0  0  0  0  0  0  0
  2  1  1  1
  3  2  1  0
  4  3  1  6
  5  4  1  0
  6  5  1  0
  7  6  1  0
  8  7  1  0
  9  8  1  0
 10  9  1  0
 10  5  1  0
 11 10  1  0
 12 11  1  0
 13 12  1  0
 13  4  1  0
 14  2  1  0
 15 14  1  0
 16 15  1  0
 17 16  1  0
 17 18  1  6
 19 17  1  0
 20 19  1  0
 21 15  1  0
 21 20  1  0
 22 21  1  0
 23 22  1  0
 24 23  1  0
 24 14  1  0
 14 25  1  1
 26 25  1  0
 27 26  1  0
 27 28  1  6
 29 27  1  0
 30 29  1  0
 31 30  1  0
 32 30  1  0
M  END
$$$$
