
     RDKit          3D

 22 23  0  0  0  0  0  0  0  0999 V2000
   13.8710   -1.8810   21.4000 Cl  0  0  0  0  0  0  0  0  0  0  0  0
   12.7360   -0.8850   22.2700 C   0  0  0  0  0  0  0  0  0  0  0  0
   13.1800    0.2680   22.8850 C   0  0  0  0  0  0  0  0  0  0  0  0
   12.2500    1.0970   23.4970 C   0  0  0  0  0  0  0  0  0  0  0  0
   10.9050    0.7580   23.4950 C   0  0  0  0  0  0  0  0  0  0  0  0
   11.4040   -1.2420   22.2710 C   0  0  0  0  0  0  0  0  0  0  0  0
   10.4680   -0.4070   22.8770 C   0  0  0  0  0  0  0  0  0  0  0  0
    8.9790   -0.7210   22.7600 C   0  0  1  0  0  0  0  0  0  0  0  0
    8.2450   -0.2850   24.0220 C   0  0  0  0  0  0  0  0  0  0  0  0
    7.5510    0.6920   24.1070 O   0  0  0  0  0  0  0  0  0  0  0  0
    8.5160   -1.1120   25.0340 O   0  0  0  0  0  0  0  0  0  0  0  0
    8.0980   -0.6880   26.3530 C   0  0  0  0  0  0  0  0  0  0  0  0
    8.4070    0.0330   21.5340 C   0  0  0  0  0  0  0  0  0  0  0  0
    8.9190    1.0620   21.1090 O   0  0  0  0  0  0  0  0  0  0  0  0
    7.3130   -0.5300   20.9880 N   0  0  0  0  0  0  0  0  0  0  0  0
    6.6130    0.0670   19.9070 C   0  0  0  0  0  0  0  0  0  0  0  0
    5.4610    0.8320   20.1580 C   0  0  0  0  0  0  0  0  0  0  0  0
    4.9100    1.0100   21.5510 C   0  0  0  0  0  0  0  0  0  0  0  0
    4.8640    1.4660   19.0740 C   0  0  0  0  0  0  0  0  0  0  0  0
    5.4100    1.3220   17.8120 C   0  0  0  0  0  0  0  0  0  0  0  0
    6.5030    0.5910   17.5590 N   0  0  0  0  0  0  0  0  0  0  0  0
    7.0850   -0.0210   18.5960 C   0  0  0  0  0  0  0  0  0  0  0  0
  2  1  1  0
  3  2  2  0
  4  3  1  0
  5  4  2  0
  6  2  1  0
  7  6  2  0
  7  5  1  0
  8  7  1  0
  8  9  1  1
 10  9  2  0
 11  9  1  0
 12 11  1  0
 13  8  1  0
 14 13  2  0
 15 13  1  0
 16 15  1  0
 17 16  2  0
 18 17  1  0
 19 17  1  0
 20 19  2  0
 21 20  1  0
 22 21  2  0
 22 16  1  0
M  END
