
     RDKit          3D

 33 37  0  0  0  0  0  0  0  0999 V2000
    9.1870    6.9030   22.3100 N   0  0  0  0  0  0  0  0  0  0  0  0
    8.3710    6.1390   22.5340 C   0  0  0  0  0  0  0  0  0  0  0  0
    7.3340    5.1460   22.8680 C   0  0  2  0  0  0  0  0  0  0  0  0
    7.2060    4.8320   24.3800 C   0  0  0  0  0  0  0  0  0  0  0  0
    7.6800    3.6500   22.6630 C   0  0  0  0  0  0  0  0  0  0  0  0
    7.7940    3.4850   24.1390 N   0  0  0  0  0  0  0  0  0  0  0  0
    7.7320    2.1650   25.0440 S   0  0  1  0  0  0  0  0  0  0  0  0
    8.1850    2.5260   26.3420 O   0  0  0  0  0  0  0  0  0  0  0  0
    6.4560    1.5650   24.8560 O   0  0  0  0  0  0  0  0  0  0  0  0
    8.8380    1.1970   24.4080 N   0  0  0  0  0  0  0  0  0  0  0  0
   10.2300    1.2690   24.8680 C   0  0  0  0  0  0  0  0  0  0  0  0
    8.4050   -0.1670   24.0540 C   0  0  0  0  0  0  0  0  0  0  0  0
    9.1690   -0.6270   22.8110 C   0  0  2  0  0  0  0  0  0  0  0  0
   10.6600   -0.3890   22.9720 C   0  0  0  0  0  0  0  0  0  0  0  0
   11.1470    0.5030   23.9420 C   0  0  0  0  0  0  0  0  0  0  0  0
   12.5230    0.6790   24.0700 C   0  0  0  0  0  0  0  0  0  0  0  0
   13.4100    0.0010   23.2590 C   0  0  0  0  0  0  0  0  0  0  0  0
   11.5620   -1.0790   22.1630 C   0  0  0  0  0  0  0  0  0  0  0  0
   12.9170   -0.8670   22.3140 C   0  0  0  0  0  0  0  0  0  0  0  0
   14.0220   -1.6790   21.2460 Cl  0  0  0  0  0  0  0  0  0  0  0  0
    8.6850    0.1050   21.5590 C   0  0  2  0  0  0  0  0  0  0  0  0
    9.2420    1.1140   21.1330 O   0  0  0  0  0  0  0  0  0  0  0  0
    7.5550   -0.4050   21.0160 N   0  0  0  0  0  0  0  0  0  0  0  0
    6.7790    0.1200   19.9590 C   0  0  0  0  0  0  0  0  0  0  0  0
    5.5960    0.8600   20.2850 C   0  0  0  0  0  0  0  0  0  0  0  0
    5.1760    1.1270   21.6130 C   0  0  0  0  0  0  0  0  0  0  0  0
    4.0690    1.8880   21.8600 C   0  0  0  0  0  0  0  0  0  0  0  0
    3.3260    2.4190   20.8110 C   0  0  0  0  0  0  0  0  0  0  0  0
    3.6830    2.1820   19.5140 C   0  0  0  0  0  0  0  0  0  0  0  0
    4.8270    1.3990   19.2130 C   0  0  0  0  0  0  0  0  0  0  0  0
    5.2790    1.1650   17.8910 C   0  0  0  0  0  0  0  0  0  0  0  0
    6.3780    0.4880   17.5900 N   0  0  0  0  0  0  0  0  0  0  0  0
    7.0940   -0.0150   18.6050 C   0  0  0  0  0  0  0  0  0  0  0  0
  2  1  1  0
  3  2  1  1
  4  3  1  0
  5  3  1  0
  6  5  1  0
  6  4  1  0
  7  6  1  0
  7  8  1  1
  9  7  1  0
 10  7  1  0
 11 10  1  0
 12 10  1  0
 13 12  1  1
 14 13  1  0
 15 14  1  0
 15 11  1  0
 16 15  1  0
 17 16  1  0
 18 14  1  0
 19 18  1  0
 19 17  1  0
 20 19  1  0
 21 13  1  0
 21 22  1  1
 23 21  1  0
 24 23  1  0
 25 24  1  0
 26 25  1  0
 27 26  1  0
 28 27  1  0
 29 28  1  0
 30 29  1  0
 30 25  1  0
 31 30  1  0
 32 31  1  0
 33 32  1  0
 33 24  1  0
M  END
$$$$
