
     RDKit          3D

 31 34  0  0  0  0  0  0  0  0999 V2000
    6.0900    2.8030   24.5840 O   0  0  0  0  0  0  0  0  0  0  0  0
    4.7900    2.2090   24.6670 S   0  0  1  0  0  0  0  0  0  0  0  0
    4.6830    0.7970   24.8490 O   0  0  0  0  0  0  0  0  0  0  0  0
    3.9040    3.0020   25.9590 C   0  0  0  0  0  0  0  0  0  0  0  0
    4.0060    2.5690   23.2840 N   0  0  0  0  0  0  0  0  0  0  0  0
    4.3680    2.1320   21.9670 C   0  0  0  0  0  0  0  0  0  0  0  0
    3.5890    2.5410   20.8850 C   0  0  0  0  0  0  0  0  0  0  0  0
    3.9120    2.1810   19.6110 C   0  0  0  0  0  0  0  0  0  0  0  0
    5.4760    1.3340   21.7510 C   0  0  0  0  0  0  0  0  0  0  0  0
    5.8450    0.9300   20.4430 C   0  0  0  0  0  0  0  0  0  0  0  0
    5.0460    1.3720   19.3480 C   0  0  0  0  0  0  0  0  0  0  0  0
    5.4420    0.9940   18.0420 C   0  0  0  0  0  0  0  0  0  0  0  0
    6.5130    0.2600   17.7710 N   0  0  0  0  0  0  0  0  0  0  0  0
    7.2570   -0.1540   18.8070 C   0  0  0  0  0  0  0  0  0  0  0  0
    6.9970    0.1280   20.1480 C   0  0  0  0  0  0  0  0  0  0  0  0
    7.8200   -0.3070   21.2140 N   0  0  0  0  0  0  0  0  0  0  0  0
    8.9620    0.2600   21.6730 C   0  0  0  0  0  0  0  0  0  0  0  0
    9.4660    1.2690   21.1970 O   0  0  0  0  0  0  0  0  0  0  0  0
    9.6080   -0.4460   22.9140 C   0  0  1  0  0  0  0  0  0  0  0  0
    9.3320   -1.8240   22.6600 O   0  0  0  0  0  0  0  0  0  0  0  0
    9.7600   -2.7660   23.6540 C   0  0  0  0  0  0  0  0  0  0  0  0
   11.1030   -0.2150   22.9540 C   0  0  0  0  0  0  0  0  0  0  0  0
   11.9390   -0.8440   22.0360 C   0  0  0  0  0  0  0  0  0  0  0  0
   13.2770   -0.5110   21.9980 C   0  0  0  0  0  0  0  0  0  0  0  0
   14.3120   -1.3460   20.8700 Cl  0  0  0  0  0  0  0  0  0  0  0  0
   13.8170    0.4520   22.8230 C   0  0  0  0  0  0  0  0  0  0  0  0
   12.9990    1.0850   23.7480 C   0  0  0  0  0  0  0  0  0  0  0  0
   11.6560    0.7400   23.8160 C   0  0  0  0  0  0  0  0  0  0  0  0
   10.9370    1.3450   24.8180 O   0  0  0  0  0  0  0  0  0  0  0  0
    9.5130    1.4370   24.5700 C   0  0  0  0  0  0  0  0  0  0  0  0
    8.9170    0.1010   24.1710 C   0  0  0  0  0  0  0  0  0  0  0  0
  2  1  2  0
  3  2  2  0
  2  4  1  1
  5  2  1  0
  6  5  1  0
  7  6  2  0
  8  7  1  0
  9  6  1  0
 10  9  2  0
 11  8  2  0
 11 10  1  0
 12 11  1  0
 13 12  2  0
 14 13  1  0
 15 14  2  0
 15 10  1  0
 16 15  1  0
 17 16  1  0
 18 17  2  0
 19 17  1  0
 19 20  1  6
 21 20  1  0
 22 19  1  0
 23 22  2  0
 24 23  1  0
 25 24  1  0
 26 24  2  0
 27 26  1  0
 28 27  2  0
 28 22  1  0
 29 28  1  0
 30 29  1  0
 31 30  1  0
 31 19  1  0
M  END
