
     RDKit          3D

 22 24  0  0  0  0  0  0  0  0999 V2000
   14.2080   -1.4690   21.3440 Cl  0  0  0  0  0  0  0  0  0  0  0  0
   12.9270   -0.8290   22.3400 C   0  0  1  0  0  0  0  0  0  0  0  0
   13.2280    0.1100   23.3070 C   0  0  0  0  0  0  0  0  0  0  0  0
   12.1870    0.6970   24.0080 C   0  0  0  0  0  0  0  0  0  0  0  0
   10.8740    0.3430   23.7360 C   0  0  0  0  0  0  0  0  0  0  0  0
   11.6260   -1.2100   22.0760 C   0  0  0  0  0  0  0  0  0  0  0  0
   10.5780   -0.6050   22.7630 C   0  0  0  0  0  0  0  0  0  0  0  0
    9.1450   -0.9470   22.4160 C   0  0  0  0  0  0  0  0  0  0  0  0
    8.5470   -0.0480   21.3520 C   0  0  2  0  0  0  0  0  0  0  0  0
    9.1980    0.8470   20.8170 O   0  0  0  0  0  0  0  0  0  0  0  0
    7.2280   -0.2250   21.1420 N   0  0  0  0  0  0  0  0  0  0  0  0
    6.4540    0.0840   20.0130 C   0  0  2  0  0  0  0  0  0  0  0  0
    6.9100    0.0440   18.6950 C   0  0  0  0  0  0  0  0  0  0  0  0
    6.3180    0.6290   17.6450 N   0  0  0  0  0  0  0  0  0  0  0  0
    5.2230    1.3280   17.8810 C   0  0  0  0  0  0  0  0  0  0  0  0
    5.2550    0.8240   20.2580 C   0  0  2  0  0  0  0  0  0  0  0  0
    4.6430    1.4880   19.1610 C   0  0  1  0  0  0  0  0  0  0  0  0
    3.5440    2.3390   19.4120 C   0  0  0  0  0  0  0  0  0  0  0  0
    3.0720    2.5160   20.6790 C   0  0  0  0  0  0  0  0  0  0  0  0
    4.7170    1.0300   21.5550 C   0  0  0  0  0  0  0  0  0  0  0  0
    3.6440    1.8660   21.7740 C   0  0  0  0  0  0  0  0  0  0  0  0
    3.1020    2.0890   23.1650 C   0  0  0  0  0  0  0  0  0  0  0  0
  2  1  1  6
  3  2  1  0
  4  3  1  0
  5  4  1  0
  6  2  1  0
  7  5  1  0
  7  6  1  0
  8  7  1  0
  9  8  1  0
  9 10  1  1
 11  9  1  0
 12 11  1  1
 13 12  1  0
 14 13  1  0
 15 14  1  0
 16 12  1  0
 17 16  1  0
 17 15  1  1
 18 17  1  0
 19 18  1  0
 16 20  1  1
 21 20  1  0
 21 19  1  0
 22 21  1  0
M  END
$$$$
