
     RDKit          3D

 20 22  0  0  0  0  0  0  0  0999 V2000
    8.9450    0.9680   21.3820 O   0  0  0  0  0  0  0  0  0  0  0  0
    8.6270   -0.1580   21.7750 C   0  0  0  0  0  0  0  0  0  0  0  0
    9.3220   -0.8200   22.9530 C   0  0  0  0  0  0  0  0  0  0  0  0
   10.7930   -0.4840   23.0870 C   0  0  0  0  0  0  0  0  0  0  0  0
   11.2140    0.5330   23.9350 C   0  0  0  0  0  0  0  0  0  0  0  0
   12.5460    0.9180   23.9790 C   0  0  0  0  0  0  0  0  0  0  0  0
   13.4820    0.2950   23.1690 C   0  0  0  0  0  0  0  0  0  0  0  0
   11.7410   -1.1430   22.3080 C   0  0  0  0  0  0  0  0  0  0  0  0
   13.0630   -0.7350   22.3480 C   0  0  0  0  0  0  0  0  0  0  0  0
   14.2200   -1.5060   21.2950 Cl  0  0  0  0  0  0  0  0  0  0  0  0
    7.6280   -0.8810   21.2290 N   0  0  0  0  0  0  0  0  0  0  0  0
    6.9470   -0.3770   20.1190 N   0  0  0  0  0  0  0  0  0  0  0  0
    5.8110    0.4410   20.1460 C   0  0  0  0  0  0  0  0  0  0  0  0
    5.5870    0.7640   18.8040 C   0  0  0  0  0  0  0  0  0  0  0  0
    6.5290    0.1290   17.9850 N   0  0  0  0  0  0  0  0  0  0  0  0
    7.3020   -0.5260   18.8170 C   0  0  0  0  0  0  0  0  0  0  0  0
    5.0270    0.9530   21.1710 C   0  0  0  0  0  0  0  0  0  0  0  0
    4.0030    1.8280   20.8240 C   0  0  0  0  0  0  0  0  0  0  0  0
    3.7820    2.1830   19.4900 C   0  0  0  0  0  0  0  0  0  0  0  0
    4.5630    1.6510   18.4700 C   0  0  0  0  0  0  0  0  0  0  0  0
  2  1  2  0
  3  2  1  0
  4  3  1  0
  5  4  2  0
  6  5  1  0
  7  6  2  0
  8  4  1  0
  9  8  2  0
  9  7  1  0
 10  9  1  0
 11  2  1  0
 12 11  1  0
 13 12  1  0
 14 13  2  0
 15 14  1  0
 16 15  2  0
 16 12  1  0
 17 13  1  0
 18 17  2  0
 19 18  1  0
 20 19  2  0
 20 14  1  0
M  END
