
     RDKit          3D

 28 31  0  0  0  0  0  0  0  0999 V2000
   14.2290   -1.6050   20.8670 Cl  0  0  0  0  0  0  0  0  0  0  0  0
   13.1600   -0.7830   21.9710 C   0  0  0  0  0  0  0  0  0  0  0  0
   13.6640    0.2200   22.7700 C   0  0  0  0  0  0  0  0  0  0  0  0
   12.7940    0.9720   23.5380 C   0  0  0  0  0  0  0  0  0  0  0  0
   11.8090   -1.0690   21.9320 C   0  0  0  0  0  0  0  0  0  0  0  0
   10.9170   -0.3080   22.6860 C   0  0  0  0  0  0  0  0  0  0  0  0
   11.4350    0.6980   23.5070 C   0  0  0  0  0  0  0  0  0  0  0  0
   10.6690    1.4110   24.4000 O   0  0  0  0  0  0  0  0  0  0  0  0
    9.2340    1.3130   24.2720 C   0  0  0  0  0  0  0  0  0  0  0  0
    8.7680   -0.0770   23.9180 C   0  0  0  0  0  0  0  0  0  0  0  0
    9.4200   -0.5280   22.6060 C   0  0  1  0  0  0  0  0  0  0  0  0
    8.8090    0.2080   21.4110 C   0  0  0  0  0  0  0  0  0  0  0  0
    9.2180    1.3060   21.0360 O   0  0  0  0  0  0  0  0  0  0  0  0
    7.7590   -0.4260   20.8390 N   0  0  0  0  0  0  0  0  0  0  0  0
    6.9100    0.0420   19.8160 C   0  0  0  0  0  0  0  0  0  0  0  0
    7.1260   -0.1590   18.4520 C   0  0  0  0  0  0  0  0  0  0  0  0
    6.3740    0.3550   17.4700 N   0  0  0  0  0  0  0  0  0  0  0  0
    5.3430    1.1080   17.8190 C   0  0  0  0  0  0  0  0  0  0  0  0
    5.7920    0.8510   20.1930 C   0  0  0  0  0  0  0  0  0  0  0  0
    4.9890    1.4050   19.1570 C   0  0  0  0  0  0  0  0  0  0  0  0
    3.8970    2.2390   19.5050 C   0  0  0  0  0  0  0  0  0  0  0  0
    3.6060    2.5020   20.8120 C   0  0  0  0  0  0  0  0  0  0  0  0
    5.4600    1.1450   21.5370 C   0  0  0  0  0  0  0  0  0  0  0  0
    4.3840    1.9450   21.8190 C   0  0  0  0  0  0  0  0  0  0  0  0
    3.9340    2.1910   23.5100 S   0  0  1  0  0  0  0  0  0  0  0  0
    2.6000    1.6910   23.6950 O   0  0  0  0  0  0  0  0  0  0  0  0
    4.9790    1.6520   24.3360 O   0  0  0  0  0  0  0  0  0  0  0  0
    3.9110    3.9340   23.7050 C   0  0  0  0  0  0  0  0  0  0  0  0
  2  1  1  0
  3  2  2  0
  4  3  1  0
  5  2  1  0
  6  5  2  0
  7  6  1  0
  7  4  2  0
  8  7  1  0
  9  8  1  0
 10  9  1  0
 11 10  1  0
 11  6  1  0
 11 12  1  6
 13 12  2  0
 14 12  1  0
 15 14  1  0
 16 15  2  0
 17 16  1  0
 18 17  2  0
 19 15  1  0
 20 18  1  0
 20 19  2  0
 21 20  1  0
 22 21  2  0
 23 19  1  0
 24 22  1  0
 24 23  2  0
 25 24  1  0
 26 25  2  0
 27 25  2  0
 25 28  1  6
M  END
