
     RDKit          3D

 22 23  0  0  0  0  0  0  0  0999 V2000
   13.9940   -1.4630   21.3920 Cl  0  0  0  0  0  0  0  0  0  0  0  0
   12.6720   -0.8600   22.3570 C   0  0  0  0  0  0  0  0  0  0  0  0
   12.9290    0.0510   23.3580 C   0  0  0  0  0  0  0  0  0  0  0  0
   11.8660    0.5310   24.1070 C   0  0  0  0  0  0  0  0  0  0  0  0
   10.5710    0.1140   23.8300 C   0  0  0  0  0  0  0  0  0  0  0  0
   11.3900   -1.2910   22.0730 C   0  0  0  0  0  0  0  0  0  0  0  0
   10.3180   -0.7800   22.8010 C   0  0  0  0  0  0  0  0  0  0  0  0
    8.9000   -1.1370   22.4110 C   0  0  0  0  0  0  0  0  0  0  0  0
    8.3370   -0.2110   21.3520 C   0  0  0  0  0  0  0  0  0  0  0  0
    8.9750    0.7500   20.9230 O   0  0  0  0  0  0  0  0  0  0  0  0
    7.0970   -0.5320   20.9230 N   0  0  0  0  0  0  0  0  0  0  0  0
    6.4840    0.0290   19.7780 C   0  0  0  0  0  0  0  0  0  0  0  0
    6.9440   -0.1180   18.4710 C   0  0  0  0  0  0  0  0  0  0  0  0
    6.3760    0.4670   17.4110 N   0  0  0  0  0  0  0  0  0  0  0  0
    5.2970    1.2260   17.6260 C   0  0  0  0  0  0  0  0  0  0  0  0
    4.7440    1.4530   18.8720 C   0  0  0  0  0  0  0  0  0  0  0  0
    5.3510    0.8490   19.9600 C   0  0  0  0  0  0  0  0  0  0  0  0
    4.8080    0.8500   21.2570 O   0  0  0  0  0  0  0  0  0  0  0  0
    4.8130    2.0730   22.1000 C   0  0  2  0  0  0  0  0  0  0  0  0
    6.1340    2.8030   21.9780 C   0  0  0  0  0  0  0  0  0  0  0  0
    4.6120    1.5530   23.5040 C   0  0  0  0  0  0  0  0  0  0  0  0
    3.6580    2.9590   21.6840 C   0  0  0  0  0  0  0  0  0  0  0  0
  2  1  1  0
  3  2  2  0
  4  3  1  0
  5  4  2  0
  6  2  1  0
  7  5  1  0
  7  6  2  0
  8  7  1  0
  9  8  1  0
 10  9  2  0
 11  9  1  0
 12 11  1  0
 13 12  2  0
 14 13  1  0
 15 14  2  0
 16 15  1  0
 17 16  2  0
 17 12  1  0
 18 17  1  0
 19 18  1  0
 19 20  1  1
 21 19  1  0
 22 19  1  0
M  END
