
     RDKit          3D

 30 33  0  0  0  0  0  0  0  0999 V2000
    9.2890    1.1700   21.1280 O   0  0  0  0  0  0  0  0  0  0  0  0
    8.8010    0.1750   21.6550 C   0  0  0  0  0  0  0  0  0  0  0  0
    9.4600   -0.4650   22.8950 C   0  0  1  0  0  0  0  0  0  0  0  0
   10.9610   -0.1780   22.9230 C   0  0  0  0  0  0  0  0  0  0  0  0
   11.8270   -0.9130   22.1140 C   0  0  0  0  0  0  0  0  0  0  0  0
   13.1770   -0.6130   22.1120 C   0  0  1  0  0  0  0  0  0  0  0  0
   14.2220   -1.4380   20.9860 Cl  0  0  0  0  0  0  0  0  0  0  0  0
   13.7050    0.3740   22.9170 C   0  0  0  0  0  0  0  0  0  0  0  0
   12.8660    1.0890   23.7530 C   0  0  0  0  0  0  0  0  0  0  0  0
   11.5080    0.8190   23.7460 C   0  0  1  0  0  0  0  0  0  0  0  0
   10.7490    1.6450   24.5420 O   0  0  0  0  0  0  0  0  0  0  0  0
    9.3080    1.5610   24.4090 C   0  0  0  0  0  0  0  0  0  0  0  0
    8.8060    0.1600   24.1490 C   0  0  0  0  0  0  0  0  0  0  0  0
    9.2210   -1.9850   23.0260 C   0  0  0  0  0  0  0  0  0  0  0  0
    9.9180   -2.5660   24.1620 N   0  0  0  0  0  0  0  0  0  0  0  0
    9.6370   -3.7800   24.6550 C   0  0  0  0  0  0  0  0  0  0  0  0
    8.7910   -4.5250   24.2080 O   0  0  0  0  0  0  0  0  0  0  0  0
   10.4280   -4.0650   25.7040 O   0  0  0  0  0  0  0  0  0  0  0  0
   10.3540   -5.4230   26.2010 C   0  0  0  0  0  0  0  0  0  0  0  0
    7.6540   -0.3850   21.1970 N   0  0  0  0  0  0  0  0  0  0  0  0
    6.9060    0.0890   20.0930 C   0  0  1  0  0  0  0  0  0  0  0  0
    5.7690    0.9220   20.3400 C   0  0  0  0  0  0  0  0  0  0  0  0
    5.2750    1.2240   21.6370 C   0  0  0  0  0  0  0  0  0  0  0  0
    4.1790    2.0210   21.8050 C   0  0  0  0  0  0  0  0  0  0  0  0
    3.5220    2.5630   20.7060 C   0  0  0  0  0  0  0  0  0  0  0  0
    3.9620    2.3090   19.4380 C   0  0  0  0  0  0  0  0  0  0  0  0
    5.0920    1.4820   19.2170 C   0  0  0  0  0  0  0  0  0  0  0  0
    5.5860    1.1730   17.9280 C   0  0  0  0  0  0  0  0  0  0  0  0
    6.6420    0.4040   17.6990 N   0  0  0  0  0  0  0  0  0  0  0  0
    7.2710   -0.1200   18.7620 C   0  0  0  0  0  0  0  0  0  0  0  0
  2  1  1  0
  3  2  1  0
  4  3  1  0
  5  4  1  0
  6  5  1  0
  6  7  1  6
  8  6  1  0
  9  8  1  0
 10  9  1  6
 10  4  1  0
 11 10  1  0
 12 11  1  0
 13 12  1  0
 13  3  1  0
  3 14  1  6
 15 14  1  0
 16 15  1  0
 17 16  1  0
 18 16  1  0
 19 18  1  0
 20  2  1  0
 21 20  1  1
 22 21  1  0
 23 22  1  0
 24 23  1  0
 25 24  1  0
 26 25  1  0
 27 26  1  0
 27 22  1  0
 28 27  1  0
 29 28  1  0
 30 29  1  0
 30 21  1  0
M  END
$$$$
