
     RDKit          3D

 29 32  0  0  0  0  0  0  0  0999 V2000
    9.0870    1.1300   21.0700 O   0  0  0  0  0  0  0  0  0  0  0  0
    8.5860    0.1000   21.5030 C   0  0  0  0  0  0  0  0  0  0  0  0
    9.1210   -0.5450   22.7980 C   0  0  1  0  0  0  0  0  0  0  0  0
   10.6110   -0.2320   22.9290 C   0  0  0  0  0  0  0  0  0  0  0  0
   11.5420   -0.8970   22.1360 C   0  0  0  0  0  0  0  0  0  0  0  0
   12.8640   -0.4990   22.1640 C   0  0  0  0  0  0  0  0  0  0  0  0
   14.0080   -1.3030   21.1270 Cl  0  0  0  0  0  0  0  0  0  0  0  0
   13.2960    0.5400   22.9590 C   0  0  0  0  0  0  0  0  0  0  0  0
   12.3860    1.1890   23.7720 C   0  0  0  0  0  0  0  0  0  0  0  0
   11.0630    0.7820   23.7750 C   0  0  0  0  0  0  0  0  0  0  0  0
   10.3050    1.2850   24.8050 O   0  0  0  0  0  0  0  0  0  0  0  0
    9.0910    0.5600   25.0930 C   0  0  0  0  0  0  0  0  0  0  0  0
    8.2860    0.2180   23.8560 C   0  0  0  0  0  0  0  0  0  0  0  0
    8.9400   -2.0870   22.8450 C   0  0  0  0  0  0  0  0  0  0  0  0
    7.5830   -2.5530   23.3320 C   0  0  0  0  0  0  0  0  0  0  0  0
    6.6170   -2.6160   22.5770 O   0  0  0  0  0  0  0  0  0  0  0  0
    7.5300   -2.9650   24.5940 N   0  0  0  0  0  0  0  0  0  0  0  0
    6.3510   -3.5970   25.1550 C   0  0  0  0  0  0  0  0  0  0  0  0
    7.5060   -0.4750   20.9310 N   0  0  0  0  0  0  0  0  0  0  0  0
    6.7280    0.0310   19.8690 C   0  0  0  0  0  0  0  0  0  0  0  0
    5.5020    0.6960   20.1840 C   0  0  0  0  0  0  0  0  0  0  0  0
    4.9840    0.8160   21.5010 C   0  0  0  0  0  0  0  0  0  0  0  0
    3.7970    1.4490   21.7330 C   0  0  0  0  0  0  0  0  0  0  0  0
    3.0720    2.0020   20.6870 C   0  0  0  0  0  0  0  0  0  0  0  0
    3.5280    1.9130   19.4010 C   0  0  0  0  0  0  0  0  0  0  0  0
    4.7470    1.2500   19.1120 C   0  0  0  0  0  0  0  0  0  0  0  0
    5.2520    1.0900   17.7990 C   0  0  0  0  0  0  0  0  0  0  0  0
    6.3860    0.4640   17.5080 N   0  0  0  0  0  0  0  0  0  0  0  0
    7.0940   -0.0420   18.5250 C   0  0  0  0  0  0  0  0  0  0  0  0
  2  1  2  0
  3  2  1  0
  4  3  1  0
  5  4  2  0
  6  5  1  0
  7  6  1  0
  8  6  2  0
  9  8  1  0
 10  4  1  0
 10  9  2  0
 11 10  1  0
 12 11  1  0
 13 12  1  0
 13  3  1  0
  3 14  1  6
 15 14  1  0
 16 15  2  0
 17 15  1  0
 18 17  1  0
 19  2  1  0
 20 19  1  0
 21 20  1  0
 22 21  2  0
 23 22  1  0
 24 23  2  0
 25 24  1  0
 26 25  2  0
 26 21  1  0
 27 26  1  0
 28 27  2  0
 29 28  1  0
 29 20  2  0
M  END
