
     RDKit          3D

 29 32  0  0  0  0  0  0  0  0999 V2000
    9.0690    1.5970   21.2040 O   0  0  0  0  0  0  0  0  0  0  0  0
    8.9690    0.5110   21.7520 C   0  0  0  0  0  0  0  0  0  0  0  0
    8.3270   -0.6700   21.0260 C   0  0  0  0  0  0  0  0  0  0  0  0
    7.4440   -0.2080   19.9780 N   0  0  0  0  0  0  0  0  0  0  0  0
    6.2650    0.4630   20.0780 C   0  0  0  0  0  0  0  0  0  0  0  0
    5.4470    0.8090   21.1450 C   0  0  0  0  0  0  0  0  0  0  0  0
    4.3150    1.5650   20.8670 C   0  0  0  0  0  0  0  0  0  0  0  0
    4.0100    1.9480   19.5640 C   0  0  0  0  0  0  0  0  0  0  0  0
    4.8340    1.5930   18.5030 C   0  0  0  0  0  0  0  0  0  0  0  0
    5.9730    0.8390   18.7710 C   0  0  0  0  0  0  0  0  0  0  0  0
    6.9680    0.3680   17.9460 N   0  0  0  0  0  0  0  0  0  0  0  0
    7.8380   -0.2670   18.6800 N   0  0  0  0  0  0  0  0  0  0  0  0
    9.3860    0.2960   23.0330 N   0  0  0  0  0  0  0  0  0  0  0  0
    9.3400   -0.9690   23.6850 C   0  0  0  0  0  0  0  0  0  0  0  0
    8.4660   -1.1750   24.7440 C   0  0  0  0  0  0  0  0  0  0  0  0
    8.3760   -2.4170   25.3440 C   0  0  0  0  0  0  0  0  0  0  0  0
   10.1330   -2.0180   23.2380 C   0  0  0  0  0  0  0  0  0  0  0  0
   10.0280   -3.2660   23.8200 C   0  0  0  0  0  0  0  0  0  0  0  0
    9.1510   -3.4910   24.8880 C   0  0  0  0  0  0  0  0  0  0  0  0
    9.0420   -4.7370   25.4620 N   0  0  0  0  0  0  0  0  0  0  0  0
   10.1350   -5.6860   25.3780 C   0  0  0  0  0  0  0  0  0  0  0  0
    8.1210   -4.9890   26.5630 C   0  0  0  0  0  0  0  0  0  0  0  0
    9.9000    1.4320   23.8060 C   0  0  0  0  0  0  0  0  0  0  0  0
   11.3200    1.7980   23.4490 C   0  0  0  0  0  0  0  0  0  0  0  0
   11.5930    2.9350   22.6970 C   0  0  0  0  0  0  0  0  0  0  0  0
   12.8880    3.2260   22.3000 C   0  0  0  0  0  0  0  0  0  0  0  0
   13.9260    2.3830   22.6450 C   0  0  0  0  0  0  0  0  0  0  0  0
   13.6720    1.2580   23.4090 C   0  0  0  0  0  0  0  0  0  0  0  0
   12.3770    0.9710   23.8130 C   0  0  0  0  0  0  0  0  0  0  0  0
  2  1  2  0
  3  2  1  0
  4  3  1  0
  5  4  1  0
  6  5  2  0
  7  6  1  0
  8  7  2  0
  9  8  1  0
 10  9  2  0
 10  5  1  0
 11 10  1  0
 12 11  2  0
 12  4  1  0
 13  2  1  0
 14 13  1  0
 15 14  2  0
 16 15  1  0
 17 14  1  0
 18 17  2  0
 19 18  1  0
 19 16  2  0
 20 19  1  0
 21 20  1  0
 22 20  1  0
 23 13  1  0
 24 23  1  0
 25 24  2  0
 26 25  1  0
 27 26  2  0
 28 27  1  0
 29 28  2  0
 29 24  1  0
M  END
