
     RDKit          3D

 25 28  0  0  0  0  0  0  0  0999 V2000
   10.6380    0.8740   24.9680 O   0  0  0  0  0  0  0  0  0  0  0  0
    5.3280    1.0520   21.5910 C   0  0  0  0  0  0  0  0  0  0  0  0
    9.2500   -0.6680   22.8900 C   0  0  1  0  0  0  0  0  0  0  0  0
    4.2610    1.8720   21.8280 C   0  0  0  0  0  0  0  0  0  0  0  0
    3.5560    2.4340   20.7770 C   0  0  0  0  0  0  0  0  0  0  0  0
    3.9080    2.1720   19.4840 C   0  0  0  0  0  0  0  0  0  0  0  0
   13.9840   -1.8460   21.0290 Cl  0  0  0  0  0  0  0  0  0  0  0  0
    5.0130    1.3320   19.1930 C   0  0  0  0  0  0  0  0  0  0  0  0
    5.4580    1.0670   17.8730 C   0  0  0  0  0  0  0  0  0  0  0  0
    7.2010   -0.1980   18.6030 C   0  0  0  0  0  0  0  0  0  0  0  0
    9.2760    1.0630   21.1920 O   0  0  0  0  0  0  0  0  0  0  0  0
    6.8910   -0.0350   19.9520 C   0  0  0  0  0  0  0  0  0  0  0  0
    8.7440    0.0370   21.5980 C   0  0  0  0  0  0  0  0  0  0  0  0
    8.8670   -2.0900   22.9310 N   0  0  0  0  0  0  0  0  0  0  0  0
    7.6720   -0.5460   21.0160 N   0  0  0  0  0  0  0  0  0  0  0  0
    5.7460    0.7600   20.2670 C   0  0  0  0  0  0  0  0  0  0  0  0
   10.7680   -0.5250   22.9840 C   0  0  0  0  0  0  0  0  0  0  0  0
   11.5930   -1.1770   22.0730 C   0  0  0  0  0  0  0  0  0  0  0  0
   12.9640   -1.0260   22.1720 C   0  0  0  0  0  0  0  0  0  0  0  0
   13.5440   -0.2390   23.1400 C   0  0  0  0  0  0  0  0  0  0  0  0
   12.7370    0.4010   24.0610 C   0  0  0  0  0  0  0  0  0  0  0  0
   11.3640    0.2490   23.9850 C   0  0  0  0  0  0  0  0  0  0  0  0
    9.3040    1.2420   24.5590 C   0  0  0  0  0  0  0  0  0  0  0  0
    6.5210    0.3340   17.5810 N   0  0  0  0  0  0  0  0  0  0  0  0
    8.5230    0.0470   24.0540 C   0  0  0  0  0  0  0  0  0  0  0  0
  4  2  2  0
  5  4  1  0
  6  5  2  0
  8  6  1  0
  9  8  1  0
 12 10  2  0
 13 11  2  0
 13  3  1  0
  3 14  1  6
 15 13  1  0
 15 12  1  0
 16  8  2  0
 16  2  1  0
 16 12  1  0
 17  3  1  0
 18 17  2  0
 19  7  1  0
 19 18  1  0
 20 19  2  0
 21 20  1  0
 22 17  1  0
 22  1  1  0
 22 21  2  0
 23  1  1  0
 24 10  1  0
 24  9  2  0
 25 23  1  0
 25  3  1  0
M  END
