
     RDKit          3D

 25 28  0  0  0  0  0  0  0  0999 V2000
    8.9130    1.1470   21.1500 O   0  0  0  0  0  0  0  0  0  0  0  0
    8.3860    0.1380   21.5990 C   0  0  0  0  0  0  0  0  0  0  0  0
    8.8880   -0.4770   22.9440 C   0  0  1  0  0  0  0  0  0  0  0  0
   10.3990   -0.2760   23.0030 C   0  0  1  0  0  0  0  0  0  0  0  0
   11.2790   -1.0560   22.2550 C   0  0  0  0  0  0  0  0  0  0  0  0
   12.6250   -0.7400   22.2510 C   0  0  1  0  0  0  0  0  0  0  0  0
   13.6960   -1.6450   21.2200 Cl  0  0  0  0  0  0  0  0  0  0  0  0
   13.1330    0.3030   22.9910 C   0  0  0  0  0  0  0  0  0  0  0  0
   12.2750    1.0630   23.7650 C   0  0  0  0  0  0  0  0  0  0  0  0
   10.9200    0.7700   23.7620 C   0  0  0  0  0  0  0  0  0  0  0  0
   10.1300    1.5570   24.5620 O   0  0  0  0  0  0  0  0  0  0  0  0
    9.0130    0.8430   25.1250 C   0  0  0  0  0  0  0  0  0  0  0  0
    8.1100    0.2470   24.0600 C   0  0  0  0  0  0  0  0  0  0  0  0
    8.5860   -1.8660   23.0320 O   0  0  0  0  0  0  0  0  0  0  0  0
    7.3390   -0.4820   21.0120 N   0  0  0  0  0  0  0  0  0  0  0  0
    6.6150   -0.0340   19.8900 C   0  0  1  0  0  0  0  0  0  0  0  0
    5.4370    0.7400   20.1130 C   0  0  0  0  0  0  0  0  0  0  0  0
    4.8880    0.9870   21.3980 C   0  0  0  0  0  0  0  0  0  0  0  0
    3.7620    1.7440   21.5460 C   0  0  0  0  0  0  0  0  0  0  0  0
    3.1260    2.2900   20.4410 C   0  0  0  0  0  0  0  0  0  0  0  0
    3.6120    2.0780   19.1820 C   0  0  0  0  0  0  0  0  0  0  0  0
    4.7760    1.2970   18.9830 C   0  0  0  0  0  0  0  0  0  0  0  0
    5.3250    1.0350   17.7050 C   0  0  0  0  0  0  0  0  0  0  0  0
    6.4110    0.3050   17.4970 N   0  0  0  0  0  0  0  0  0  0  0  0
    7.0270   -0.2110   18.5690 C   0  0  0  0  0  0  0  0  0  0  0  0
  2  1  1  0
  3  2  1  0
  4  3  1  0
  4  5  1  6
  6  5  1  0
  6  7  1  6
  8  6  1  0
  9  8  1  0
 10  4  1  0
 10  9  1  0
 11 10  1  0
 12 11  1  0
 13 12  1  0
 13  3  1  0
  3 14  1  6
 15  2  1  0
 16 15  1  1
 17 16  1  0
 18 17  1  0
 19 18  1  0
 20 19  1  0
 21 20  1  0
 22 21  1  0
 22 17  1  0
 23 22  1  0
 24 23  1  0
 25 24  1  0
 25 16  1  0
M  END
$$$$
