
     RDKit          3D

 24 27  0  0  0  0  0  0  0  0999 V2000
    9.3290    1.4750   21.1150 O   0  0  0  0  0  0  0  0  0  0  0  0
    8.9350    0.3730   21.4810 C   0  0  0  0  0  0  0  0  0  0  0  0
    9.4970   -0.3220   22.7210 C   0  0  2  0  0  0  0  0  0  0  0  0
    8.7520    0.3250   23.9250 C   0  0  0  0  0  0  0  0  0  0  0  0
    9.7020    0.8660   24.9650 C   0  0  0  0  0  0  0  0  0  0  0  0
   10.8050    1.5900   24.4080 O   0  0  0  0  0  0  0  0  0  0  0  0
   11.0030   -0.1280   22.7180 C   0  0  0  0  0  0  0  0  0  0  0  0
   11.5680    0.8300   23.5590 C   0  0  0  0  0  0  0  0  0  0  0  0
   12.9350    1.0640   23.5830 C   0  0  0  0  0  0  0  0  0  0  0  0
   13.7640    0.3360   22.7490 C   0  0  0  0  0  0  0  0  0  0  0  0
   11.8550   -0.8760   21.9050 C   0  0  0  0  0  0  0  0  0  0  0  0
   13.2140   -0.6270   21.9270 C   0  0  0  0  0  0  0  0  0  0  0  0
   14.2620   -1.5640   20.9010 Cl  0  0  0  0  0  0  0  0  0  0  0  0
    7.9810   -0.3120   20.8260 N   0  0  0  0  0  0  0  0  0  0  0  0
    6.9100    0.1360   20.0210 C   0  0  0  0  0  0  0  0  0  0  0  0
    5.9550    1.1320   20.3170 C   0  0  0  0  0  0  0  0  0  0  0  0
    5.8510    1.6960   21.7120 C   0  0  0  0  0  0  0  0  0  0  0  0
    4.5830    2.3910   21.9570 N   0  0  0  0  0  0  0  0  0  0  0  0
    4.2330    3.3240   20.8570 C   0  0  0  0  0  0  0  0  0  0  0  0
    4.0160    2.5810   19.5580 C   0  0  0  0  0  0  0  0  0  0  0  0
    5.1630    1.6390   19.2750 C   0  0  0  0  0  0  0  0  0  0  0  0
    5.4370    1.2200   17.9910 C   0  0  0  0  0  0  0  0  0  0  0  0
    6.3770    0.3260   17.6760 N   0  0  0  0  0  0  0  0  0  0  0  0
    7.0610   -0.2270   18.6840 C   0  0  0  0  0  0  0  0  0  0  0  0
  2  1  2  0
  3  2  1  6
  4  3  1  0
  5  4  1  0
  6  5  1  0
  7  3  1  0
  8  6  1  0
  8  7  2  0
  9  8  1  0
 10  9  2  0
 11  7  1  0
 12 11  2  0
 12 10  1  0
 13 12  1  0
 14  2  1  0
 15 14  1  0
 16 15  1  0
 17 16  1  0
 18 17  1  0
 19 18  1  0
 20 19  1  0
 21 20  1  0
 21 16  2  0
 22 21  1  0
 23 22  2  0
 24 23  1  0
 24 15  2  0
M  END
