
     RDKit          3D

 31 35  0  0  0  0  0  0  0  0999 V2000
    8.9660    0.9790   21.4300 O   0  0  0  0  0  0  0  0  0  0  0  0
    8.4500   -0.0910   21.7470 C   0  0  0  0  0  0  0  0  0  0  0  0
    7.3760   -0.6160   21.1060 N   0  0  0  0  0  0  0  0  0  0  0  0
    6.6710   -0.0790   20.0010 C   0  0  0  0  0  0  0  0  0  0  0  0
    5.5060    0.7170   20.2430 C   0  0  0  0  0  0  0  0  0  0  0  0
    4.9460    0.9230   21.5300 C   0  0  0  0  0  0  0  0  0  0  0  0
    3.8370    1.7000   21.6970 C   0  0  0  0  0  0  0  0  0  0  0  0
    3.2350    2.3200   20.6080 C   0  0  0  0  0  0  0  0  0  0  0  0
    3.7260    2.1380   19.3460 C   0  0  0  0  0  0  0  0  0  0  0  0
    4.8640    1.3250   19.1270 C   0  0  0  0  0  0  0  0  0  0  0  0
    5.3990    1.0730   17.8400 C   0  0  0  0  0  0  0  0  0  0  0  0
    6.4640    0.3150   17.6110 N   0  0  0  0  0  0  0  0  0  0  0  0
    7.0710   -0.2330   18.6720 C   0  0  0  0  0  0  0  0  0  0  0  0
    8.9530   -0.9150   22.9350 C   0  0  1  0  0  0  0  0  0  0  0  0
   10.4210   -0.6060   23.1800 C   0  0  2  0  0  0  0  0  0  0  0  0
   10.7790    0.3470   24.1460 C   0  0  1  0  0  0  0  0  0  0  0  0
   12.1170    0.7220   24.2690 C   0  0  0  0  0  0  0  0  0  0  0  0
   13.0890    0.1800   23.4490 C   0  0  0  0  0  0  0  0  0  0  0  0
   11.4170   -1.1910   22.3920 C   0  0  0  0  0  0  0  0  0  0  0  0
   12.7280   -0.7770   22.5300 C   0  0  1  0  0  0  0  0  0  0  0  0
   13.9420   -1.4370   21.4720 Cl  0  0  0  0  0  0  0  0  0  0  0  0
    8.1200   -0.5290   24.1580 C   0  0  0  0  0  0  0  0  0  0  0  0
    8.3760    0.8720   24.4950 N   0  0  0  0  0  0  0  0  0  0  0  0
    9.7450    1.0270   25.0160 C   0  0  0  0  0  0  0  0  0  0  0  0
    7.3880    1.4080   25.4270 C   0  0  0  0  0  0  0  0  0  0  0  0
    6.6630    2.6460   24.9270 C   0  0  0  0  0  0  0  0  0  0  0  0
    5.4700    2.8210   25.1720 O   0  0  0  0  0  0  0  0  0  0  0  0
    7.3930    3.5100   24.2140 N   0  0  0  0  0  0  0  0  0  0  0  0
    6.9900    3.9850   22.8900 C   0  0  1  0  0  0  0  0  0  0  0  0
    5.9670    5.0480   22.8010 C   0  0  0  0  0  0  0  0  0  0  0  0
    7.3830    5.3500   22.4830 C   0  0  0  0  0  0  0  0  0  0  0  0
  2  1  1  0
  3  2  1  0
  4  3  1  0
  5  4  1  0
  6  5  1  0
  7  6  1  0
  8  7  1  0
  9  8  1  0
 10  9  1  0
 10  5  1  0
 11 10  1  0
 12 11  1  0
 13 12  1  0
 13  4  1  0
 14  2  1  6
 15 14  1  0
 16 15  1  0
 16 17  1  6
 18 17  1  0
 15 19  1  6
 20 19  1  0
 20 18  1  0
 20 21  1  6
 22 14  1  0
 23 22  1  0
 24 23  1  0
 24 16  1  0
 25 23  1  0
 26 25  1  0
 27 26  1  0
 28 26  1  0
 29 28  1  1
 30 29  1  0
 31 30  1  0
 31 29  1  0
M  END
$$$$
