
     RDKit          3D

 34 38  0  0  0  0  0  0  0  0999 V2000
   13.8030    7.8120   22.8170 O   0  0  0  0  0  0  0  0  0  0  0  0
   13.0520    7.1770   23.5540 C   0  0  0  0  0  0  0  0  0  0  0  0
   12.1600    7.9850   24.4300 C   0  0  0  0  0  0  0  0  0  0  0  0
   10.8250    7.6870   24.4710 O   0  0  0  0  0  0  0  0  0  0  0  0
   10.2420    8.6440   25.2690 C   0  0  0  0  0  0  0  0  0  0  0  0
   11.1560    9.5030   25.7120 C   0  0  0  0  0  0  0  0  0  0  0  0
   12.4090    9.0860   25.1770 C   0  0  0  0  0  0  0  0  0  0  0  0
   13.0350    5.8320   23.5790 N   0  0  0  0  0  0  0  0  0  0  0  0
   13.7330    5.0810   22.5230 C   0  0  0  0  0  0  0  0  0  0  0  0
   12.9320    3.8640   22.1080 C   0  0  0  0  0  0  0  0  0  0  0  0
   12.4970    5.0390   24.6980 C   0  0  0  0  0  0  0  0  0  0  0  0
   11.7720    3.8000   24.1900 C   0  0  0  0  0  0  0  0  0  0  0  0
   12.6370    3.0440   23.2830 N   0  0  0  0  0  0  0  0  0  0  0  0
   12.3290    1.7060   23.0320 C   0  0  0  0  0  0  0  0  0  0  0  0
   13.3400    0.7920   22.7150 C   0  0  0  0  0  0  0  0  0  0  0  0
   12.9960   -0.4880   22.3230 C   0  0  0  0  0  0  0  0  0  0  0  0
   14.2540   -1.5810   21.8220 Cl  0  0  0  0  0  0  0  0  0  0  0  0
   10.9950    1.2820   22.9890 C   0  0  0  0  0  0  0  0  0  0  0  0
   10.6690   -0.0110   22.5820 C   0  0  0  0  0  0  0  0  0  0  0  0
   11.6830   -0.9030   22.2530 C   0  0  0  0  0  0  0  0  0  0  0  0
    9.2210   -0.4320   22.4640 C   0  0  0  0  0  0  0  0  0  0  0  0
    8.5080    0.2820   21.3310 C   0  0  0  0  0  0  0  0  0  0  0  0
    8.7670    1.4460   21.0340 O   0  0  0  0  0  0  0  0  0  0  0  0
    7.6840   -0.4840   20.6030 N   0  0  0  0  0  0  0  0  0  0  0  0
    6.6270   -0.1170   19.7550 C   0  0  0  0  0  0  0  0  0  0  0  0
    5.6260    0.8230   20.1640 C   0  0  0  0  0  0  0  0  0  0  0  0
    5.2270    1.0150   21.5140 C   0  0  0  0  0  0  0  0  0  0  0  0
    4.1760    1.8310   21.8310 C   0  0  0  0  0  0  0  0  0  0  0  0
    3.4720    2.4990   20.8380 C   0  0  0  0  0  0  0  0  0  0  0  0
    3.8180    2.3550   19.5250 C   0  0  0  0  0  0  0  0  0  0  0  0
    4.8970    1.5120   19.1500 C   0  0  0  0  0  0  0  0  0  0  0  0
    5.2310    1.2480   17.8050 C   0  0  0  0  0  0  0  0  0  0  0  0
    6.1510    0.3790   17.4260 N   0  0  0  0  0  0  0  0  0  0  0  0
    6.7930   -0.2970   18.3830 C   0  0  0  0  0  0  0  0  0  0  0  0
  2  1  2  0
  3  2  1  0
  4  3  1  0
  5  4  1  0
  6  5  2  0
  7  6  1  0
  7  3  2  0
  8  2  1  0
  9  8  1  0
 10  9  1  0
 11  8  1  0
 12 11  1  0
 13 12  1  0
 13 10  1  0
 14 13  1  0
 15 14  2  0
 16 15  1  0
 17 16  1  0
 18 14  1  0
 19 18  2  0
 20 19  1  0
 20 16  2  0
 21 19  1  0
 22 21  1  0
 23 22  2  0
 24 22  1  0
 25 24  1  0
 26 25  1  0
 27 26  2  0
 28 27  1  0
 29 28  2  0
 30 29  1  0
 31 30  2  0
 31 26  1  0
 32 31  1  0
 33 32  2  0
 34 33  1  0
 34 25  2  0
M  END
