
     RDKit          3D

 24 27  0  0  0  0  0  0  0  0999 V2000
    8.6160    0.9540   21.1900 O   0  0  0  0  0  0  0  0  0  0  0  0
    8.0490    0.0170   21.7300 C   0  0  0  0  0  0  0  0  0  0  0  0
    8.5830   -0.5730   23.0320 C   0  0  2  0  0  0  0  0  0  0  0  0
   10.0890   -0.3880   23.1220 C   0  0  0  0  0  0  0  0  0  0  0  0
   10.6480    0.4370   24.0890 C   0  0  0  0  0  0  0  0  0  0  0  0
   12.0150    0.6480   24.1440 C   0  0  0  0  0  0  0  0  0  0  0  0
   10.9380   -1.0210   22.2200 C   0  0  0  0  0  0  0  0  0  0  0  0
   12.3070   -0.8180   22.2620 C   0  0  0  0  0  0  0  0  0  0  0  0
   12.8270    0.0330   23.2150 C   0  0  1  0  0  0  0  0  0  0  0  0
   14.5300    0.3880   23.2050 Cl  0  0  0  0  0  0  0  0  0  0  0  0
    6.9020   -0.5270   21.2150 N   0  0  0  0  0  0  0  0  0  0  0  0
    6.4240   -1.8960   21.4890 C   0  0  0  0  0  0  0  0  0  0  0  0
    6.7610   -2.3100   22.9060 C   0  0  0  0  0  0  0  0  0  0  0  0
    8.2380   -2.0710   23.1830 C   0  0  0  0  0  0  0  0  0  0  0  0
    6.2920    0.0400   20.0510 C   0  0  0  0  0  0  0  0  0  0  0  0
    5.1370    0.8590   20.2160 C   0  0  0  0  0  0  0  0  0  0  0  0
    4.5860    1.2110   21.4800 C   0  0  0  0  0  0  0  0  0  0  0  0
    3.4990    2.0360   21.5680 C   0  0  0  0  0  0  0  0  0  0  0  0
    2.8980    2.5380   20.4230 C   0  0  0  0  0  0  0  0  0  0  0  0
    3.3870    2.2300   19.1850 C   0  0  0  0  0  0  0  0  0  0  0  0
    4.5230    1.3910   19.0470 C   0  0  0  0  0  0  0  0  0  0  0  0
    5.1130    1.0850   17.7920 C   0  0  0  0  0  0  0  0  0  0  0  0
    6.1990    0.3380   17.6450 N   0  0  0  0  0  0  0  0  0  0  0  0
    6.7540   -0.1670   18.7550 C   0  0  0  0  0  0  0  0  0  0  0  0
  2  1  1  0
  3  2  1  0
  3  4  1  6
  5  4  1  0
  6  5  1  0
  7  4  1  0
  8  7  1  0
  9  8  1  0
  9  6  1  0
  9 10  1  6
 11  2  1  0
 12 11  1  0
 13 12  1  0
 14 13  1  0
 14  3  1  0
 15 11  1  0
 16 15  1  0
 17 16  1  0
 18 17  1  0
 19 18  1  0
 20 19  1  0
 21 20  1  0
 21 16  1  0
 22 21  1  0
 23 22  1  0
 24 23  1  0
 24 15  1  0
M  END
$$$$
