
     RDKit          3D

 23 25  0  0  0  0  0  0  0  0999 V2000
   13.5630   -1.5860   21.8990 Cl  0  0  0  0  0  0  0  0  0  0  0  0
   12.2710   -0.7610   22.7120 C   0  0  0  0  0  0  0  0  0  0  0  0
   12.5330    0.2920   23.5780 C   0  0  0  0  0  0  0  0  0  0  0  0
   14.1580    0.8290   23.8650 Cl  0  0  0  0  0  0  0  0  0  0  0  0
   11.4850    0.9340   24.2190 C   0  0  0  0  0  0  0  0  0  0  0  0
   10.1840    0.5310   23.9810 C   0  0  0  0  0  0  0  0  0  0  0  0
   10.9680   -1.1590   22.4770 C   0  0  0  0  0  0  0  0  0  0  0  0
    9.9070   -0.5080   23.1030 C   0  0  0  0  0  0  0  0  0  0  0  0
    8.4690   -0.9220   22.8020 C   0  0  2  0  0  0  0  0  0  0  0  0
    8.3320   -2.4540   22.7190 C   0  0  0  0  0  0  0  0  0  0  0  0
    8.0420   -0.0980   21.5790 C   0  0  0  0  0  0  0  0  0  0  0  0
    8.7750    0.7640   21.1000 O   0  0  0  0  0  0  0  0  0  0  0  0
    6.7880   -0.3450   21.1150 N   0  0  0  0  0  0  0  0  0  0  0  0
    6.1600    0.1530   19.9560 C   0  0  0  0  0  0  0  0  0  0  0  0
    5.0020    0.9690   20.1230 C   0  0  0  0  0  0  0  0  0  0  0  0
    4.4390    1.2910   21.3860 C   0  0  0  0  0  0  0  0  0  0  0  0
    3.3260    2.0730   21.4800 C   0  0  0  0  0  0  0  0  0  0  0  0
    2.7170    2.5770   20.3380 C   0  0  0  0  0  0  0  0  0  0  0  0
    3.2180    2.2960   19.0990 C   0  0  0  0  0  0  0  0  0  0  0  0
    4.3700    1.4830   18.9560 C   0  0  0  0  0  0  0  0  0  0  0  0
    4.9320    1.1430   17.6990 C   0  0  0  0  0  0  0  0  0  0  0  0
    6.0060    0.3820   17.5440 N   0  0  0  0  0  0  0  0  0  0  0  0
    6.5930   -0.0930   18.6510 C   0  0  0  0  0  0  0  0  0  0  0  0
  2  1  1  0
  3  2  2  0
  4  3  1  0
  5  3  1  0
  6  5  2  0
  7  2  1  0
  8  6  1  0
  8  7  2  0
  9  8  1  0
  9 10  1  6
 11  9  1  0
 12 11  2  0
 13 11  1  0
 14 13  1  0
 15 14  1  0
 16 15  2  0
 17 16  1  0
 18 17  2  0
 19 18  1  0
 20 19  2  0
 20 15  1  0
 21 20  1  0
 22 21  2  0
 23 22  1  0
 23 14  2  0
M  END
