
     RDKit          3D

 21 23  0  0  0  0  0  0  0  0999 V2000
    6.2270    1.0220   16.7810 O   0  0  0  0  0  0  0  0  0  0  0  0
    5.8180    0.7690   17.9030 C   0  0  2  0  0  0  0  0  0  0  0  0
    4.6750    1.2740   18.3550 N   0  0  0  0  0  0  0  0  0  0  0  0
    4.3780    1.6410   19.7410 C   0  0  0  0  0  0  0  0  0  0  0  0
    5.1440    0.7390   20.6940 C   0  0  0  0  0  0  0  0  0  0  0  0
    6.6420   -0.0490   18.8580 C   0  0  0  0  0  0  0  0  0  0  0  0
    6.5910    0.5870   20.2470 C   0  0  2  0  0  0  0  0  0  0  0  0
    7.3590   -0.1900   21.2130 N   0  0  0  0  0  0  0  0  0  0  0  0
    8.5370    0.2240   21.6880 C   0  0  0  0  0  0  0  0  0  0  0  0
    9.1270    1.2010   21.2320 O   0  0  0  0  0  0  0  0  0  0  0  0
    9.0860   -0.5930   22.8600 C   0  0  2  0  0  0  0  0  0  0  0  0
    8.3520   -0.2520   24.1600 C   0  0  0  0  0  0  0  0  0  0  0  0
    8.7840    1.1050   24.6500 C   0  0  0  0  0  0  0  0  0  0  0  0
   10.2060    1.1670   24.9050 O   0  0  0  0  0  0  0  0  0  0  0  0
   10.5680   -0.3120   23.0020 C   0  0  0  0  0  0  0  0  0  0  0  0
   11.5090   -0.9530   22.2000 C   0  0  0  0  0  0  0  0  0  0  0  0
   12.8490   -0.6450   22.3360 C   0  0  0  0  0  0  0  0  0  0  0  0
   14.0030   -1.4370   21.3040 Cl  0  0  0  0  0  0  0  0  0  0  0  0
   11.0230    0.6070   23.9520 C   0  0  2  0  0  0  0  0  0  0  0  0
   12.3690    0.9210   24.0630 C   0  0  0  0  0  0  0  0  0  0  0  0
   13.2890    0.2870   23.2470 C   0  0  0  0  0  0  0  0  0  0  0  0
  2  1  1  1
  3  2  1  0
  4  3  1  0
  5  4  1  0
  6  2  1  0
  7  5  1  0
  7  6  1  0
  7  8  1  1
  9  8  1  0
 10  9  1  0
 11  9  1  6
 12 11  1  0
 13 12  1  0
 14 13  1  0
 15 11  1  0
 16 15  1  0
 17 16  1  0
 18 17  1  0
 19 15  1  0
 19 14  1  0
 19 20  1  1
 21 20  1  0
 21 17  1  0
M  END
$$$$
