
     RDKit          3D

 23 26  0  0  0  0  0  0  0  0999 V2000
    9.3130    1.4710   21.1440 O   0  0  0  0  0  0  0  0  0  0  0  0
    8.8830    0.4120   21.5760 C   0  0  0  0  0  0  0  0  0  0  0  0
    9.4010   -0.3630   22.7820 C   0  0  2  0  0  0  0  0  0  0  0  0
   10.9040   -0.2110   22.9490 C   0  0  0  0  0  0  0  0  0  0  0  0
   11.4310    0.6800   23.8780 C   0  0  0  0  0  0  0  0  0  0  0  0
   12.8010    0.8730   23.9750 C   0  0  0  0  0  0  0  0  0  0  0  0
   13.6650    0.1860   23.1340 C   0  0  0  0  0  0  0  0  0  0  0  0
   11.7730   -0.9250   22.1300 C   0  0  0  0  0  0  0  0  0  0  0  0
   13.1320   -0.6960   22.2150 C   0  0  0  0  0  0  0  0  0  0  0  0
   14.1890   -1.4660   21.0630 Cl  0  0  0  0  0  0  0  0  0  0  0  0
    7.8410   -0.3010   21.0470 N   0  0  0  0  0  0  0  0  0  0  0  0
    7.6300   -1.5950   21.7170 C   0  0  0  0  0  0  0  0  0  0  0  0
    8.9390   -1.8030   22.4670 C   0  0  0  0  0  0  0  0  0  0  0  0
    7.0090    0.1340   19.9680 C   0  0  0  0  0  0  0  0  0  0  0  0
    5.8520    0.9300   20.2140 C   0  0  0  0  0  0  0  0  0  0  0  0
    5.3860    1.2770   21.5100 C   0  0  0  0  0  0  0  0  0  0  0  0
    4.3010    2.0920   21.6740 C   0  0  0  0  0  0  0  0  0  0  0  0
    3.6270    2.6040   20.5720 C   0  0  0  0  0  0  0  0  0  0  0  0
    4.0290    2.2930   19.3050 C   0  0  0  0  0  0  0  0  0  0  0  0
    5.1470    1.4480   19.0890 C   0  0  0  0  0  0  0  0  0  0  0  0
    5.6290    1.1130   17.7970 C   0  0  0  0  0  0  0  0  0  0  0  0
    6.6960    0.3560   17.5740 N   0  0  0  0  0  0  0  0  0  0  0  0
    7.3590   -0.1110   18.6430 C   0  0  0  0  0  0  0  0  0  0  0  0
  2  1  2  0
  3  2  1  0
  3  4  1  6
  5  4  2  0
  6  5  1  0
  7  6  2  0
  8  4  1  0
  9  8  2  0
  9  7  1  0
 10  9  1  0
 11  2  1  0
 12 11  1  0
 13 12  1  0
 13  3  1  0
 14 11  1  0
 15 14  1  0
 16 15  2  0
 17 16  1  0
 18 17  2  0
 19 18  1  0
 20 19  2  0
 20 15  1  0
 21 20  1  0
 22 21  2  0
 23 22  1  0
 23 14  2  0
M  END
