
     RDKit          3D

 31 35  0  0  0  0  0  0  0  0999 V2000
    9.3100    1.5100   21.4410 O   0  0  0  0  0  0  0  0  0  0  0  0
    8.9540    0.4140   21.8410 C   0  0  0  0  0  0  0  0  0  0  0  0
    7.9470   -0.3390   21.3090 N   0  0  0  0  0  0  0  0  0  0  0  0
    7.1170    0.0350   20.1990 C   0  0  0  0  0  0  0  0  0  0  0  0
    5.9310    0.8080   20.3860 C   0  0  0  0  0  0  0  0  0  0  0  0
    5.4300    1.1960   21.6560 C   0  0  0  0  0  0  0  0  0  0  0  0
    4.3210    1.9850   21.7620 C   0  0  0  0  0  0  0  0  0  0  0  0
    3.6540    2.4290   20.6270 C   0  0  0  0  0  0  0  0  0  0  0  0
    4.0850    2.0710   19.3820 C   0  0  0  0  0  0  0  0  0  0  0  0
    5.2270    1.2470   19.2250 C   0  0  0  0  0  0  0  0  0  0  0  0
    5.7320    0.8590   17.9570 C   0  0  0  0  0  0  0  0  0  0  0  0
    6.8180    0.1210   17.7870 N   0  0  0  0  0  0  0  0  0  0  0  0
    7.4760   -0.2710   18.8880 C   0  0  0  0  0  0  0  0  0  0  0  0
    7.7750   -1.6270   21.9980 C   0  0  0  0  0  0  0  0  0  0  0  0
    9.0870   -1.8030   22.7580 C   0  0  0  0  0  0  0  0  0  0  0  0
    9.5510   -0.3530   23.0340 C   0  0  1  0  0  0  0  0  0  0  0  0
   11.0810   -0.2100   23.1060 C   0  0  0  0  0  0  0  0  0  0  0  0
   11.8970   -0.9820   22.2810 C   0  0  0  0  0  0  0  0  0  0  0  0
   13.2380   -0.6700   22.1750 C   0  0  0  0  0  0  0  0  0  0  0  0
   14.2120   -1.5220   21.0110 Cl  0  0  0  0  0  0  0  0  0  0  0  0
   13.8080    0.3450   22.9130 C   0  0  0  0  0  0  0  0  0  0  0  0
   13.0160    1.0600   23.7890 C   0  0  0  0  0  0  0  0  0  0  0  0
   11.6510    0.7990   23.9000 C   0  0  0  0  0  0  0  0  0  0  0  0
   10.8240    1.5970   24.8800 C   0  0  0  0  0  0  0  0  0  0  0  0
    8.9140    0.2280   24.3250 C   0  0  0  0  0  0  0  0  0  0  0  0
    9.3940    1.5940   24.5380 N   0  0  0  0  0  0  0  0  0  0  0  0
    8.6110    2.4820   25.3910 C   0  0  0  0  0  0  0  0  0  0  0  0
    7.6790    3.3900   24.6080 C   0  0  0  0  0  0  0  0  0  0  0  0
    6.5630    3.6620   25.0410 O   0  0  0  0  0  0  0  0  0  0  0  0
    8.1160    3.8230   23.4290 N   0  0  0  0  0  0  0  0  0  0  0  0
    7.2610    4.5350   22.4970 C   0  0  0  0  0  0  0  0  0  0  0  0
  2  1  2  0
  3  2  1  0
  4  3  1  0
  5  4  1  0
  6  5  2  0
  7  6  1  0
  8  7  2  0
  9  8  1  0
 10  9  2  0
 10  5  1  0
 11 10  1  0
 12 11  2  0
 13 12  1  0
 13  4  2  0
 14  3  1  0
 15 14  1  0
 16 15  1  6
 16  2  1  0
 17 16  1  0
 18 17  2  0
 19 18  1  0
 20 19  1  0
 21 19  2  0
 22 21  1  0
 23 22  2  0
 23 17  1  0
 24 23  1  0
 25 16  1  0
 26 25  1  0
 26 24  1  0
 27 26  1  0
 28 27  1  0
 29 28  2  0
 30 28  1  0
 31 30  1  0
M  END
