
     RDKit          3D

 28 31  0  0  0  0  0  0  0  0999 V2000
   14.1150   -1.6550   20.9590 Cl  0  0  0  0  0  0  0  0  0  0  0  0
   13.1910   -0.6960   22.0770 C   0  0  1  0  0  0  0  0  0  0  0  0
   13.8440    0.2200   22.8750 C   0  0  0  0  0  0  0  0  0  0  0  0
   13.1050    1.0470   23.7000 C   0  0  0  0  0  0  0  0  0  0  0  0
   11.7220    0.9540   23.6940 C   0  0  0  0  0  0  0  0  0  0  0  0
   11.0540    1.8170   24.5230 O   0  0  0  0  0  0  0  0  0  0  0  0
    9.8450    1.2610   25.0670 C   0  0  0  0  0  0  0  0  0  0  0  0
    8.8690    0.8970   23.9760 C   0  0  0  0  0  0  0  0  0  0  0  0
   11.8140   -0.8230   22.0920 C   0  0  0  0  0  0  0  0  0  0  0  0
   11.0530    0.0290   22.8910 C   0  0  0  0  0  0  0  0  0  0  0  0
    9.5350   -0.0010   22.9100 C   0  0  2  0  0  0  0  0  0  0  0  0
    8.9470    0.3190   21.5370 C   0  0  0  0  0  0  0  0  0  0  0  0
    9.2780    1.3120   20.9120 O   0  0  0  0  0  0  0  0  0  0  0  0
    7.9560   -0.5450   21.0100 N   0  0  0  0  0  0  0  0  0  0  0  0
    7.7750   -1.8790   21.4230 C   0  0  2  0  0  0  0  0  0  0  0  0
    8.6360   -2.4450   22.0790 O   0  0  0  0  0  0  0  0  0  0  0  0
    6.5330   -2.6170   20.9620 C   0  0  0  0  0  0  0  0  0  0  0  0
    6.8620   -3.9110   20.2250 C   0  0  0  0  0  0  0  0  0  0  0  0
    7.1210   -0.0420   19.9430 C   0  0  2  0  0  0  0  0  0  0  0  0
    7.4630   -0.2230   18.6090 C   0  0  0  0  0  0  0  0  0  0  0  0
    6.7950    0.3190   17.5800 N   0  0  0  0  0  0  0  0  0  0  0  0
    5.7630    1.1040   17.8610 C   0  0  0  0  0  0  0  0  0  0  0  0
    5.3120    1.3930   19.1700 C   0  0  0  0  0  0  0  0  0  0  0  0
    6.0020    0.7860   20.2590 C   0  0  0  0  0  0  0  0  0  0  0  0
    4.1880    2.2110   19.4360 C   0  0  0  0  0  0  0  0  0  0  0  0
    3.7570    2.4040   20.7160 C   0  0  0  0  0  0  0  0  0  0  0  0
    4.4110    1.7980   21.7810 C   0  0  0  0  0  0  0  0  0  0  0  0
    5.5060    1.0080   21.5690 C   0  0  0  0  0  0  0  0  0  0  0  0
  2  1  1  6
  3  2  1  0
  4  3  1  0
  5  4  1  0
  6  5  1  0
  7  6  1  0
  8  7  1  0
  9  2  1  0
 10  9  1  0
 10  5  1  0
 11  8  1  0
 11 10  1  0
 11 12  1  6
 13 12  1  0
 14 12  1  0
 15 14  1  0
 15 16  1  6
 17 15  1  0
 18 17  1  0
 19 14  1  1
 20 19  1  0
 21 20  1  0
 22 21  1  0
 23 22  1  0
 24 23  1  0
 24 19  1  0
 25 23  1  0
 26 25  1  0
 27 26  1  0
 28 27  1  0
 28 24  1  0
M  END
$$$$
