
     RDKit          3D

 29 32  0  0  0  0  0  0  0  0999 V2000
    9.2630    1.2570   20.8980 O   0  0  0  0  0  0  0  0  0  0  0  0
    8.8280    0.2110   21.3590 C   0  0  0  0  0  0  0  0  0  0  0  0
    9.4600   -0.4130   22.6270 C   0  0  1  0  0  0  0  0  0  0  0  0
   10.9650   -0.1570   22.7020 C   0  0  0  0  0  0  0  0  0  0  0  0
   11.8480   -0.9410   21.9610 C   0  0  0  0  0  0  0  0  0  0  0  0
   13.1900   -0.6170   21.9440 C   0  0  0  0  0  0  0  0  0  0  0  0
   14.2460   -1.4710   20.8490 Cl  0  0  0  0  0  0  0  0  0  0  0  0
   13.6950    0.4350   22.6790 C   0  0  0  0  0  0  0  0  0  0  0  0
   12.8330    1.2080   23.4350 C   0  0  0  0  0  0  0  0  0  0  0  0
   11.4800    0.9050   23.4460 C   0  0  0  0  0  0  0  0  0  0  0  0
   10.7460    1.5660   24.3980 O   0  0  0  0  0  0  0  0  0  0  0  0
    9.5380    0.8980   24.8160 C   0  0  0  0  0  0  0  0  0  0  0  0
    8.6710    0.4110   23.6760 C   0  0  0  0  0  0  0  0  0  0  0  0
    9.2250   -1.9440   22.7160 C   0  0  0  0  0  0  0  0  0  0  0  0
    7.9360   -2.3380   23.4040 C   0  0  0  0  0  0  0  0  0  0  0  0
    6.8400   -2.1700   22.8700 O   0  0  0  0  0  0  0  0  0  0  0  0
    8.0680   -2.9110   24.5950 N   0  0  0  0  0  0  0  0  0  0  0  0
    6.9300   -3.4140   25.3440 C   0  0  0  0  0  0  0  0  0  0  0  0
    7.7210   -0.3860   20.8500 N   0  0  0  0  0  0  0  0  0  0  0  0
    6.8910    0.0850   19.8100 C   0  0  0  0  0  0  0  0  0  0  0  0
    5.7050    0.8110   20.1500 C   0  0  0  0  0  0  0  0  0  0  0  0
    5.2290    0.9700   21.4790 C   0  0  0  0  0  0  0  0  0  0  0  0
    4.0970    1.6920   21.7390 C   0  0  0  0  0  0  0  0  0  0  0  0
    3.3880    2.2930   20.7050 C   0  0  0  0  0  0  0  0  0  0  0  0
    3.7980    2.1570   19.4090 C   0  0  0  0  0  0  0  0  0  0  0  0
    4.9590    1.4050   19.0940 C   0  0  0  0  0  0  0  0  0  0  0  0
    5.4200    1.2090   17.7700 C   0  0  0  0  0  0  0  0  0  0  0  0
    6.5000    0.5110   17.4530 N   0  0  0  0  0  0  0  0  0  0  0  0
    7.2050   -0.0300   18.4550 C   0  0  0  0  0  0  0  0  0  0  0  0
  2  1  2  0
  3  2  1  0
  4  3  1  0
  5  4  2  0
  6  5  1  0
  7  6  1  0
  8  6  2  0
  9  8  1  0
 10  9  2  0
 10  4  1  0
 11 10  1  0
 12 11  1  0
 13 12  1  0
 13  3  1  0
  3 14  1  1
 15 14  1  0
 16 15  2  0
 17 15  1  0
 18 17  1  0
 19  2  1  0
 20 19  1  0
 21 20  1  0
 22 21  2  0
 23 22  1  0
 24 23  2  0
 25 24  1  0
 26 25  2  0
 26 21  1  0
 27 26  1  0
 28 27  2  0
 29 28  1  0
 29 20  2  0
M  END
