
     RDKit          3D

 16 18  0  0  0  0  0  0  0  0999 V2000
   20.7590   18.6060    6.2910 C   0  0  0  0  0  0  0  0  0  0  0  0
   20.0460   19.7230    5.8900 C   0  0  0  0  0  0  0  0  0  0  0  0
   21.8220   16.3930    5.7800 C   0  0  0  0  0  0  0  0  0  0  0  0
   20.3610   15.3770    7.4420 C   0  0  2  0  0  0  0  0  0  0  0  0
   21.5430   15.1540    8.4000 C   0  0  0  0  0  0  0  0  0  0  0  0
   22.5580   14.3930    7.5440 C   0  0  0  0  0  0  0  0  0  0  0  0
   21.7630   14.0540    6.2950 C   0  0  1  0  0  0  0  0  0  0  0  0
   20.8900   12.8090    6.4070 C   0  0  0  0  0  0  0  0  0  0  0  0
   19.7860   12.9300    7.4330 C   0  0  2  0  0  0  0  0  0  0  0  0
   19.2530   14.3400    7.5780 C   0  0  0  0  0  0  0  0  0  0  0  0
   20.3140   12.4990    8.6690 O   0  0  0  0  0  0  0  0  0  0  0  0
   20.9560   15.2330    6.1080 N   0  0  0  0  0  0  0  0  0  0  0  0
   21.0660   17.6280    5.3700 C   0  0  0  0  0  0  0  0  0  0  0  0
   20.6730   17.8130    4.0570 C   0  0  0  0  0  0  0  0  0  0  0  0
   20.0080   18.9520    3.6610 C   0  0  0  0  0  0  0  0  0  0  0  0
   19.6750   19.8960    4.5730 C   0  0  0  0  0  0  0  0  0  0  0  0
  2  1  1  0
  4  5  1  1
  6  5  1  0
  7  6  1  1
  8  7  1  0
  9  8  1  0
 10  9  1  0
 10  4  1  0
  9 11  1  1
 12  7  1  0
 12  4  1  0
 12  3  1  0
 13  1  1  0
 13  3  1  0
 14 13  1  0
 15 14  1  0
 16 15  1  0
 16  2  1  0
M  END
