
     RDKit          3D

 27 29  0  0  0  0  0  0  0  0999 V2000
   13.8370   -1.7220   22.0430 Cl  0  0  0  0  0  0  0  0  0  0  0  0
   12.3950   -0.9070   22.5540 C   0  0  0  0  0  0  0  0  0  0  0  0
   12.4610    0.1860   23.4020 C   0  0  0  0  0  0  0  0  0  0  0  0
   13.9820    0.9080   23.8040 Cl  0  0  0  0  0  0  0  0  0  0  0  0
   11.2960    0.7410   23.9050 C   0  0  0  0  0  0  0  0  0  0  0  0
   10.0720    0.2180   23.5320 C   0  0  0  0  0  0  0  0  0  0  0  0
   11.1670   -1.4090   22.1610 C   0  0  0  0  0  0  0  0  0  0  0  0
    9.9900   -0.8440   22.6410 C   0  0  0  0  0  0  0  0  0  0  0  0
    8.6520   -1.3510   22.1630 C   0  0  1  0  0  0  0  0  0  0  0  0
    7.8980   -1.8460   23.2730 O   0  0  0  0  0  0  0  0  0  0  0  0
    7.9980   -3.2630   23.4490 C   0  0  0  0  0  0  0  0  0  0  0  0
    6.9310   -3.9620   22.6600 C   0  0  0  0  0  0  0  0  0  0  0  0
    6.8430   -5.3660   22.8790 O   0  0  0  0  0  0  0  0  0  0  0  0
    5.7400   -5.9370   22.1870 C   0  0  0  0  0  0  0  0  0  0  0  0
    7.9340   -0.3110   21.2960 C   0  0  0  0  0  0  0  0  0  0  0  0
    8.0840    0.8910   21.5010 O   0  0  0  0  0  0  0  0  0  0  0  0
    7.3040   -0.8120   20.2180 N   0  0  0  0  0  0  0  0  0  0  0  0
    6.3660   -0.2320   19.3450 C   0  0  0  0  0  0  0  0  0  0  0  0
    5.4170    0.7500   19.7840 C   0  0  0  0  0  0  0  0  0  0  0  0
    4.9880    0.8940   21.1300 C   0  0  0  0  0  0  0  0  0  0  0  0
    3.9790    1.7550   21.4620 C   0  0  0  0  0  0  0  0  0  0  0  0
    3.3470    2.5100   20.4900 C   0  0  0  0  0  0  0  0  0  0  0  0
    3.7250    2.4150   19.1830 C   0  0  0  0  0  0  0  0  0  0  0  0
    4.7660    1.5350   18.7930 C   0  0  0  0  0  0  0  0  0  0  0  0
    5.1220    1.3160   17.4440 C   0  0  0  0  0  0  0  0  0  0  0  0
    5.9850    0.4040   17.0390 N   0  0  0  0  0  0  0  0  0  0  0  0
    6.5660   -0.3530   17.9740 C   0  0  0  0  0  0  0  0  0  0  0  0
  2  1  1  0
  3  2  2  0
  4  3  1  0
  5  3  1  0
  6  5  2  0
  7  2  1  0
  8  6  1  0
  8  7  2  0
  9  8  1  0
  9 10  1  1
 11 10  1  0
 12 11  1  0
 13 12  1  0
 14 13  1  0
 15  9  1  0
 16 15  2  0
 17 15  1  0
 18 17  1  0
 19 18  1  0
 20 19  2  0
 21 20  1  0
 22 21  2  0
 23 22  1  0
 24 23  2  0
 24 19  1  0
 25 24  1  0
 26 25  2  0
 27 26  1  0
 27 18  2  0
M  END
