
     RDKit          3D

 31 34  0  0  0  0  0  0  0  0999 V2000
    9.2870    0.8060   21.1740 O   0  0  0  0  0  0  0  0  0  0  0  0
    8.7160   -0.1970   21.6020 C   0  0  0  0  0  0  0  0  0  0  0  0
    7.5720   -0.6850   21.0640 N   0  0  0  0  0  0  0  0  0  0  0  0
    6.8280   -0.1490   19.9890 C   0  0  1  0  0  0  0  0  0  0  0  0
    5.7000    0.6810   20.2860 C   0  0  0  0  0  0  0  0  0  0  0  0
    5.2240    0.9270   21.6010 C   0  0  0  0  0  0  0  0  0  0  0  0
    4.1540    1.7480   21.8170 C   0  0  0  0  0  0  0  0  0  0  0  0
    3.5160    2.3790   20.7520 C   0  0  0  0  0  0  0  0  0  0  0  0
    3.9250    2.1600   19.4690 C   0  0  0  0  0  0  0  0  0  0  0  0
    5.0140    1.2940   19.1980 C   0  0  0  0  0  0  0  0  0  0  0  0
    5.4680    1.0050   17.8870 C   0  0  0  0  0  0  0  0  0  0  0  0
    6.5080    0.2280   17.6120 N   0  0  0  0  0  0  0  0  0  0  0  0
    7.1610   -0.3220   18.6460 C   0  0  0  0  0  0  0  0  0  0  0  0
    9.2230   -0.9610   22.8280 C   0  0  1  0  0  0  0  0  0  0  0  0
   10.6940   -0.6280   23.0200 C   0  0  2  0  0  0  0  0  0  0  0  0
   11.0650    0.3970   23.9040 C   0  0  0  0  0  0  0  0  0  0  0  0
   12.3880    0.8360   23.9200 C   0  0  0  0  0  0  0  0  0  0  0  0
   13.3370    0.2720   23.0890 C   0  0  0  0  0  0  0  0  0  0  0  0
   11.6700   -1.2380   22.2280 C   0  0  0  0  0  0  0  0  0  0  0  0
   12.9710   -0.7700   22.2670 C   0  0  0  0  0  0  0  0  0  0  0  0
   14.1690   -1.5020   21.2330 Cl  0  0  0  0  0  0  0  0  0  0  0  0
    8.4140   -0.5460   24.0600 C   0  0  0  0  0  0  0  0  0  0  0  0
    8.6740    0.8620   24.3650 N   0  0  0  0  0  0  0  0  0  0  0  0
   10.0580    1.0340   24.8360 C   0  0  0  0  0  0  0  0  0  0  0  0
    7.7040    1.4480   25.2870 C   0  0  0  0  0  0  0  0  0  0  0  0
    7.0700    2.7420   24.8000 C   0  0  0  0  0  0  0  0  0  0  0  0
    5.9080    3.0190   25.0840 O   0  0  0  0  0  0  0  0  0  0  0  0
    7.8460    3.5300   24.0570 N   0  0  0  0  0  0  0  0  0  0  0  0
    7.3360    4.1830   22.8610 C   0  0  0  0  0  0  0  0  0  0  0  0
    7.8880    5.5410   22.6990 C   0  0  0  0  0  0  0  0  0  0  0  0
    8.3080    6.5920   22.5290 N   0  0  0  0  0  0  0  0  0  0  0  0
  2  1  1  0
  3  2  1  0
  4  3  1  1
  5  4  1  0
  6  5  1  0
  7  6  1  0
  8  7  1  0
  9  8  1  0
 10  9  1  0
 10  5  1  0
 11 10  1  0
 12 11  1  0
 13 12  1  0
 13  4  1  0
 14  2  1  6
 15 14  1  0
 16 15  1  0
 17 16  1  0
 18 17  1  0
 15 19  1  6
 20 19  1  0
 20 18  1  0
 21 20  1  0
 22 14  1  0
 23 22  1  0
 24 23  1  0
 24 16  1  0
 25 23  1  0
 26 25  1  0
 27 26  1  0
 28 26  1  0
 29 28  1  0
 30 29  1  0
 31 30  1  0
M  END
$$$$
