
     RDKit          3D

 31 34  0  0  0  0  0  0  0  0999 V2000
   14.1960   -1.5790   20.9430 Cl  0  0  0  0  0  0  0  0  0  0  0  0
   13.2490   -0.7220   22.1300 C   0  0  0  0  0  0  0  0  0  0  0  0
   13.8830    0.1520   22.9960 C   0  0  0  0  0  0  0  0  0  0  0  0
   13.1290    0.8730   23.9040 C   0  0  0  0  0  0  0  0  0  0  0  0
   11.8760   -0.8990   22.1420 C   0  0  0  0  0  0  0  0  0  0  0  0
   11.1030   -0.1610   23.0360 C   0  0  0  0  0  0  0  0  0  0  0  0
   11.7500    0.7190   23.9110 C   0  0  0  0  0  0  0  0  0  0  0  0
   11.0690    1.4950   24.8140 O   0  0  0  0  0  0  0  0  0  0  0  0
    9.8640    0.8800   25.3030 C   0  0  0  0  0  0  0  0  0  0  0  0
    8.9090    0.5180   24.1810 C   0  0  0  0  0  0  0  0  0  0  0  0
    9.5930   -0.2920   23.0600 C   0  0  2  0  0  0  0  0  0  0  0  0
    9.2060   -1.6650   22.9380 O   0  0  0  0  0  0  0  0  0  0  0  0
    9.3880   -2.4980   24.0860 C   0  0  0  0  0  0  0  0  0  0  0  0
    8.9650    0.3180   21.7690 C   0  0  0  0  0  0  0  0  0  0  0  0
    9.4650    1.3000   21.2330 O   0  0  0  0  0  0  0  0  0  0  0  0
    7.8300   -0.2790   21.3230 N   0  0  0  0  0  0  0  0  0  0  0  0
    7.0780    0.1150   20.1910 C   0  0  0  0  0  0  0  0  0  0  0  0
    7.5030   -0.0800   18.8760 C   0  0  0  0  0  0  0  0  0  0  0  0
    6.8820    0.3970   17.7870 N   0  0  0  0  0  0  0  0  0  0  0  0
    5.7710    1.0990   17.9710 C   0  0  0  0  0  0  0  0  0  0  0  0
    5.1990    1.3690   19.2390 C   0  0  0  0  0  0  0  0  0  0  0  0
    5.8680    0.8570   20.3890 C   0  0  0  0  0  0  0  0  0  0  0  0
    5.2860    1.0960   21.6640 C   0  0  0  0  0  0  0  0  0  0  0  0
    4.1120    1.7820   21.7900 C   0  0  0  0  0  0  0  0  0  0  0  0
    3.9950    2.0880   19.4030 C   0  0  0  0  0  0  0  0  0  0  0  0
    3.4680    2.2610   20.6560 C   0  0  0  0  0  0  0  0  0  0  0  0
    1.8870    3.0280   20.8060 S   0  0  1  0  0  0  0  0  0  0  0  0
    1.5170    3.5450   19.5220 O   0  0  0  0  0  0  0  0  0  0  0  0
    1.0130    2.1100   21.4680 O   0  0  0  0  0  0  0  0  0  0  0  0
    2.0530    4.2980   21.7790 N   0  0  0  0  0  0  0  0  0  0  0  0
    2.8110    5.4570   21.3170 C   0  0  0  0  0  0  0  0  0  0  0  0
  2  1  1  0
  3  2  2  0
  4  3  1  0
  5  2  1  0
  6  5  2  0
  7  6  1  0
  7  4  2  0
  8  7  1  0
  9  8  1  0
 10  9  1  0
 11 10  1  0
 11  6  1  0
 11 12  1  1
 13 12  1  0
 14 11  1  0
 15 14  2  0
 16 14  1  0
 17 16  1  0
 18 17  2  0
 19 18  1  0
 20 19  2  0
 21 20  1  0
 22 21  2  0
 22 17  1  0
 23 22  1  0
 24 23  2  0
 25 21  1  0
 26 25  2  0
 26 24  1  0
 27 26  1  0
 28 27  2  0
 29 27  2  0
 27 30  1  1
 31 30  1  0
M  END
