
     RDKit          3D

 21 23  0  0  0  0  0  0  0  0999 V2000
    8.8750    1.0590   21.0580 O   0  0  0  0  0  0  0  0  0  0  0  0
    8.4290   -0.0520   21.3340 C   0  0  0  0  0  0  0  0  0  0  0  0
    8.9520   -0.8540   22.5110 C   0  0  0  0  0  0  0  0  0  0  0  0
   10.3410   -0.4310   22.9340 C   0  0  0  0  0  0  0  0  0  0  0  0
   10.5350    0.4260   24.0100 C   0  0  0  0  0  0  0  0  0  0  0  0
   11.8140    0.7930   24.3960 C   0  0  0  0  0  0  0  0  0  0  0  0
   12.9100    0.3070   23.7030 C   0  0  0  0  0  0  0  0  0  0  0  0
   11.4560   -0.9110   22.2560 C   0  0  0  0  0  0  0  0  0  0  0  0
   12.7470   -0.5540   22.6260 C   0  0  0  0  0  0  0  0  0  0  0  0
   13.9380   -1.0890   21.8720 C   0  0  0  0  0  0  0  0  0  0  0  0
    7.4250   -0.6560   20.6560 N   0  0  0  0  0  0  0  0  0  0  0  0
    6.5810   -0.1000   19.6740 C   0  0  0  0  0  0  0  0  0  0  0  0
    5.4400    0.6470   20.1100 C   0  0  0  0  0  0  0  0  0  0  0  0
    5.0730    0.8070   21.4720 C   0  0  0  0  0  0  0  0  0  0  0  0
    3.9950    1.5650   21.8250 C   0  0  0  0  0  0  0  0  0  0  0  0
    3.2280    2.2010   20.8560 C   0  0  0  0  0  0  0  0  0  0  0  0
    3.5360    2.0750   19.5310 C   0  0  0  0  0  0  0  0  0  0  0  0
    4.6470    1.2950   19.1200 C   0  0  0  0  0  0  0  0  0  0  0  0
    5.0330    1.1480   17.7640 C   0  0  0  0  0  0  0  0  0  0  0  0
    6.0890    0.4540   17.3620 N   0  0  0  0  0  0  0  0  0  0  0  0
    6.8260   -0.1530   18.3030 C   0  0  0  0  0  0  0  0  0  0  0  0
  2  1  2  0
  3  2  1  0
  4  3  1  0
  5  4  2  0
  6  5  1  0
  7  6  2  0
  8  4  1  0
  9  8  2  0
  9  7  1  0
 10  9  1  0
 11  2  1  0
 12 11  1  0
 13 12  1  0
 14 13  2  0
 15 14  1  0
 16 15  2  0
 17 16  1  0
 18 17  2  0
 18 13  1  0
 19 18  1  0
 20 19  2  0
 21 20  1  0
 21 12  2  0
M  END
