
     RDKit          3D

 20 21  0  0  0  0  0  0  0  0999 V2000
    7.5030   -2.5470   23.7730 N   0  0  0  0  0  0  0  0  0  0  0  0
    6.0470   -5.1850   29.1770 C   0  0  0  0  0  0  0  0  0  0  0  0
    8.6790   -1.1300   25.4300 O   0  0  0  0  0  0  0  0  0  0  0  0
    7.0680   -4.8430   28.1200 C   0  0  0  0  0  0  0  0  0  0  0  0
    6.7950   -4.2600   22.2390 C   0  0  0  0  0  0  0  0  0  0  0  0
    6.3670   -3.4000   23.3970 C   0  0  0  0  0  0  0  0  0  0  0  0
    6.7250   -3.5730   19.8760 C   0  0  0  0  0  0  0  0  0  0  0  0
    7.2920   -2.7050   18.7850 C   0  0  0  0  0  0  0  0  0  0  0  0
    8.1970   -5.6230   27.9370 C   0  0  0  0  0  0  0  0  0  0  0  0
    9.1360   -5.3120   26.9670 C   0  0  0  0  0  0  0  0  0  0  0  0
    8.9730   -4.2040   26.1390 C   0  0  0  0  0  0  0  0  0  0  0  0
   10.0310   -3.9300   25.1080 C   0  0  0  0  0  0  0  0  0  0  0  0
    7.8330   -3.4120   26.3300 C   0  0  0  0  0  0  0  0  0  0  0  0
    6.8940   -3.7370   27.3010 C   0  0  0  0  0  0  0  0  0  0  0  0
    7.8700   -1.6340   22.6810 C   0  0  0  0  0  0  0  0  0  0  0  0
    8.2790   -2.4590   21.4870 C   0  0  0  0  0  0  0  0  0  0  0  0
    7.2350   -3.4240   21.1200 N   0  0  0  0  0  0  0  0  0  0  0  0
    6.2410   -1.4880   25.6110 O   0  0  0  0  0  0  0  0  0  0  0  0
    5.8570   -4.3940   19.6090 O   0  0  0  0  0  0  0  0  0  0  0  0
    7.5460   -1.9930   25.3150 S   0  0  2  0  0  0  0  0  0  0  0  0
  4  2  1  0
  6  5  1  0
  6  1  1  0
  8  7  1  0
  9  4  2  0
 10  9  1  0
 11 10  2  0
 12 11  1  0
 13 11  1  0
 14 13  2  0
 14  4  1  0
 15  1  1  0
 16 15  1  0
 17 16  1  0
 17  7  1  0
 17  5  1  0
 19  7  2  0
 20 18  2  0
 20 13  1  1
 20  3  2  0
 20  1  1  0
M  END
