
     RDKit          3D

 19 20  0  0  0  0  0  0  0  0999 V2000
    5.4990   -5.3540   24.3700 N   0  0  0  0  0  0  0  0  0  0  0  0
    4.2000   -2.6040   26.0450 C   0  0  0  0  0  0  0  0  0  0  0  0
    5.8180   -5.0600   26.7900 O   0  0  0  0  0  0  0  0  0  0  0  0
    3.3650   -1.5100   26.0810 C   0  0  0  0  0  0  0  0  0  0  0  0
    6.6980   -4.4970   20.5550 C   0  0  0  0  0  0  0  0  0  0  0  0
    7.9070   -3.6210   20.3340 C   0  0  0  0  0  0  0  0  0  0  0  0
    2.0020   -1.7020   25.9550 C   0  0  0  0  0  0  0  0  0  0  0  0
    1.4800   -2.9660   25.7910 C   0  0  0  0  0  0  0  0  0  0  0  0
    2.3190   -4.0670   25.7530 C   0  0  0  0  0  0  0  0  0  0  0  0
    3.6910   -3.8940   25.8740 C   0  0  0  0  0  0  0  0  0  0  0  0
    6.5510   -4.3640   24.0950 C   0  0  0  0  0  0  0  0  0  0  0  0
    7.3920   -4.8480   22.9440 C   0  0  0  0  0  0  0  0  0  0  0  0
    5.4910   -6.0510   22.0500 C   0  0  0  0  0  0  0  0  0  0  0  0
    4.6370   -5.5750   23.1960 C   0  0  0  0  0  0  0  0  0  0  0  0
    5.5310   -2.4080   26.1710 F   0  0  0  0  0  0  0  0  0  0  0  0
    6.5500   -5.0810   21.7680 N   0  0  0  0  0  0  0  0  0  0  0  0
    3.9690   -6.4660   25.9520 O   0  0  0  0  0  0  0  0  0  0  0  0
    5.8900   -4.6610   19.6490 O   0  0  0  0  0  0  0  0  0  0  0  0
    4.7750   -5.2920   25.8400 S   0  0  1  0  0  0  0  0  0  0  0  0
  4  2  2  0
  6  5  1  0
  7  4  1  0
  8  7  2  0
  9  8  1  0
 10  9  2  0
 10  2  1  0
 11  1  1  0
 12 11  1  0
 14 13  1  0
 14  1  1  0
 15  2  1  0
 16 13  1  0
 16  5  1  0
 16 12  1  0
 18  5  2  0
 19 17  2  0
 19 10  1  6
 19  3  2  0
 19  1  1  0
M  END
