
     RDKit          3D

 24 27  0  0  0  0  0  0  0  0999 V2000
    9.1800    0.9900   21.0340 O   0  0  0  0  0  0  0  0  0  0  0  0
    8.6110   -0.0250   21.4530 C   0  0  0  0  0  0  0  0  0  0  0  0
    9.1350   -0.8170   22.6520 C   0  0  2  0  0  0  0  0  0  0  0  0
    8.3880   -0.4140   23.9290 C   0  0  0  0  0  0  0  0  0  0  0  0
    8.6090    1.0070   24.2180 N   0  0  0  0  0  0  0  0  0  0  0  0
   10.0150    1.3060   24.5010 C   0  0  0  0  0  0  0  0  0  0  0  0
   10.6030   -0.4760   22.7890 C   0  0  0  0  0  0  0  0  0  0  0  0
   11.0090    0.5580   23.6470 C   0  0  0  0  0  0  0  0  0  0  0  0
   12.3670    0.8600   23.7480 C   0  0  0  0  0  0  0  0  0  0  0  0
   13.3100    0.1610   23.0150 C   0  0  0  0  0  0  0  0  0  0  0  0
   11.5580   -1.1830   22.0590 C   0  0  0  0  0  0  0  0  0  0  0  0
   12.8890   -0.8380   22.1660 C   0  0  0  0  0  0  0  0  0  0  0  0
   14.0460   -1.6140   21.1220 Cl  0  0  0  0  0  0  0  0  0  0  0  0
    7.4680   -0.5150   20.9120 N   0  0  0  0  0  0  0  0  0  0  0  0
    6.7420    0.0100   19.8240 C   0  0  0  0  0  0  0  0  0  0  0  0
    5.6310    0.8710   20.0920 C   0  0  0  0  0  0  0  0  0  0  0  0
    5.1370    1.1430   21.3940 C   0  0  0  0  0  0  0  0  0  0  0  0
    4.0800    1.9890   21.5830 C   0  0  0  0  0  0  0  0  0  0  0  0
    3.4630    2.6030   20.5010 C   0  0  0  0  0  0  0  0  0  0  0  0
    3.9010    2.3720   19.2270 C   0  0  0  0  0  0  0  0  0  0  0  0
    4.9920    1.5010   18.9870 C   0  0  0  0  0  0  0  0  0  0  0  0
    5.4880    1.2190   17.6900 C   0  0  0  0  0  0  0  0  0  0  0  0
    6.5090    0.4100   17.4420 N   0  0  0  0  0  0  0  0  0  0  0  0
    7.1080   -0.1710   18.4900 C   0  0  0  0  0  0  0  0  0  0  0  0
  2  1  2  0
  3  2  1  6
  4  3  1  0
  5  4  1  0
  6  5  1  0
  7  3  1  0
  8  7  2  0
  8  6  1  0
  9  8  1  0
 10  9  2  0
 11  7  1  0
 12 11  2  0
 12 10  1  0
 13 12  1  0
 14  2  1  0
 15 14  1  0
 16 15  1  0
 17 16  2  0
 18 17  1  0
 19 18  2  0
 20 19  1  0
 21 20  2  0
 21 16  1  0
 22 21  1  0
 23 22  2  0
 24 23  1  0
 24 15  2  0
M  END
