
     RDKit          3D

 37 40  0  0  0  0  0  0  0  0999 V2000
    5.1570   -2.0410   21.4640 O   0  0  0  0  0  0  0  0  0  0  0  0
    6.3200   -2.2860   21.7180 C   0  0  0  0  0  0  0  0  0  0  0  0
    6.6460   -3.7200   22.0120 C   0  0  0  0  0  0  0  0  0  0  0  0
    5.7060   -4.6970   21.7240 N   0  0  0  0  0  0  0  0  0  0  0  0
    6.2410   -5.8260   22.1580 C   0  0  0  0  0  0  0  0  0  0  0  0
    7.4520   -5.6350   22.6920 N   0  0  0  0  0  0  0  0  0  0  0  0
    7.7280   -4.3010   22.6080 C   0  0  0  0  0  0  0  0  0  0  0  0
    7.2470   -1.3010   21.8070 N   0  0  0  0  0  0  0  0  0  0  0  0
    8.5200   -1.4680   22.4410 C   0  0  0  0  0  0  0  0  0  0  0  0
    8.6100   -1.4680   23.8320 C   0  0  0  0  0  0  0  0  0  0  0  0
    9.8430   -1.5690   24.4490 C   0  0  0  0  0  0  0  0  0  0  0  0
    9.6810   -1.5850   21.6770 C   0  0  0  0  0  0  0  0  0  0  0  0
   10.9170   -1.6690   22.2960 C   0  0  0  0  0  0  0  0  0  0  0  0
   10.9960   -1.6470   23.6820 C   0  0  0  0  0  0  0  0  0  0  0  0
   12.1240   -1.6530   24.4770 O   0  0  0  0  0  0  0  0  0  0  0  0
   13.4400   -1.8230   23.8780 C   0  0  2  0  0  0  0  0  0  0  0  0
   14.2730   -2.4640   24.9610 C   0  0  0  0  0  0  0  0  0  0  0  0
   13.9480   -0.4610   23.4790 C   0  0  0  0  0  0  0  0  0  0  0  0
    6.8680    0.0830   21.4180 C   0  0  2  0  0  0  0  0  0  0  0  0
    6.1880    0.2450   20.0670 C   0  0  0  0  0  0  0  0  0  0  0  0
    6.7300   -0.2900   18.9050 C   0  0  0  0  0  0  0  0  0  0  0  0
    6.3230    0.0300   17.6690 N   0  0  0  0  0  0  0  0  0  0  0  0
    5.3220    0.9100   17.5610 C   0  0  0  0  0  0  0  0  0  0  0  0
    4.6870    1.4720   18.6490 C   0  0  0  0  0  0  0  0  0  0  0  0
    5.1250    1.1200   19.9140 C   0  0  0  0  0  0  0  0  0  0  0  0
    7.9500    1.1540   21.6450 C   0  0  0  0  0  0  0  0  0  0  0  0
    8.8260    1.3540   20.8120 O   0  0  0  0  0  0  0  0  0  0  0  0
    7.8430    1.8460   22.7790 N   0  0  0  0  0  0  0  0  0  0  0  0
    8.7840    2.9030   23.1240 C   0  0  0  0  0  0  0  0  0  0  0  0
   10.0580    2.3490   23.7520 C   0  0  0  0  0  0  0  0  0  0  0  0
   11.0370    3.4370   24.1270 C   0  0  0  0  0  0  0  0  0  0  0  0
   12.1050    3.7370   23.2890 C   0  0  0  0  0  0  0  0  0  0  0  0
   12.9390    4.7770   23.6220 C   0  0  0  0  0  0  0  0  0  0  0  0
   13.9860    5.0500   22.7980 F   0  0  0  0  0  0  0  0  0  0  0  0
   12.7740    5.5460   24.7440 C   0  0  0  0  0  0  0  0  0  0  0  0
   11.7190    5.2360   25.5890 C   0  0  0  0  0  0  0  0  0  0  0  0
   10.8600    4.1910   25.2810 C   0  0  0  0  0  0  0  0  0  0  0  0
  2  1  2  0
  3  2  1  0
  4  3  1  0
  5  4  2  0
  6  5  1  0
  7  6  1  0
  7  3  2  0
  8  2  1  0
  9  8  1  0
 10  9  2  0
 11 10  1  0
 12  9  1  0
 13 12  2  0
 14 11  2  0
 14 13  1  0
 15 14  1  0
 16 15  1  0
 16 17  1  1
 18 16  1  0
 19  8  1  0
 20 19  1  0
 21 20  2  0
 22 21  1  0
 23 22  2  0
 24 23  1  0
 25 24  2  0
 25 20  1  0
 19 26  1  6
 27 26  2  0
 28 26  1  0
 29 28  1  0
 30 29  1  0
 31 30  1  0
 32 31  2  0
 33 32  1  0
 34 33  1  0
 35 33  2  0
 36 35  1  0
 37 36  2  0
 37 31  1  0
M  END
