
     RDKit          3D

 24 27  0  0  0  0  0  0  0  0999 V2000
   10.2650    0.4990   24.8820 O   0  0  0  0  0  0  0  0  0  0  0  0
    3.9920    1.5010   21.6670 C   0  0  0  0  0  0  0  0  0  0  0  0
    3.3580    2.1480   20.6250 C   0  0  0  0  0  0  0  0  0  0  0  0
    3.8090    2.0140   19.3440 C   0  0  0  0  0  0  0  0  0  0  0  0
    4.9510    1.2260   19.0630 C   0  0  0  0  0  0  0  0  0  0  0  0
    9.1550    0.8010   21.1140 O   0  0  0  0  0  0  0  0  0  0  0  0
   11.5040   -1.3260   21.9540 C   0  0  0  0  0  0  0  0  0  0  0  0
    5.4930    1.0810   17.7640 C   0  0  0  0  0  0  0  0  0  0  0  0
    7.2020   -0.2280   18.5080 C   0  0  0  0  0  0  0  0  0  0  0  0
    6.7870   -0.1730   19.8330 C   0  0  0  0  0  0  0  0  0  0  0  0
   10.5860   -0.7940   22.8530 C   0  0  0  0  0  0  0  0  0  0  0  0
    8.5990   -0.2270   21.4950 C   0  0  0  0  0  0  0  0  0  0  0  0
   13.9780   -1.7480   20.9790 Cl  0  0  0  0  0  0  0  0  0  0  0  0
    7.5040   -0.7300   20.9050 N   0  0  0  0  0  0  0  0  0  0  0  0
    5.0880    0.7230   21.4370 C   0  0  0  0  0  0  0  0  0  0  0  0
   12.8340   -0.9780   22.0410 C   0  0  0  0  0  0  0  0  0  0  0  0
   13.2860   -0.0830   22.9840 C   0  0  0  0  0  0  0  0  0  0  0  0
   12.3930    0.4300   23.9070 C   0  0  0  0  0  0  0  0  0  0  0  0
   11.0600    0.0520   23.8550 C   0  0  0  0  0  0  0  0  0  0  0  0
    8.8650    0.6300   24.5560 C   0  0  0  0  0  0  0  0  0  0  0  0
    8.3070   -0.6390   23.9650 C   0  0  0  0  0  0  0  0  0  0  0  0
    9.0960   -1.0300   22.6980 C   0  0  2  0  0  0  0  0  0  0  0  0
    6.5850    0.3810   17.4900 N   0  0  0  0  0  0  0  0  0  0  0  0
    5.6120    0.5710   20.1300 C   0  0  0  0  0  0  0  0  0  0  0  0
  3  2  2  0
  4  3  1  0
  5  4  2  0
  8  5  1  0
 10  9  2  0
 11  7  2  0
 12  6  2  0
 14 12  1  0
 14 10  1  0
 15  2  1  0
 16 13  1  0
 16  7  1  0
 17 16  2  0
 18 17  1  0
 19 11  1  0
 19  1  1  0
 19 18  2  0
 20  1  1  0
 21 20  1  0
 22 12  1  6
 22 21  1  0
 22 11  1  0
 23  9  1  0
 23  8  2  0
 24 15  2  0
 24  5  1  0
 24 10  1  0
M  END
