
     RDKit          3D

 27 30  0  0  0  0  0  0  0  0999 V2000
   14.0680   -1.4070   21.0540 Cl  0  0  0  0  0  0  0  0  0  0  0  0
   12.8720   -0.7250   22.1110 C   0  0  0  0  0  0  0  0  0  0  0  0
   11.5610   -1.1290   21.9770 C   0  0  0  0  0  0  0  0  0  0  0  0
   13.2410    0.2450   23.0170 C   0  0  0  0  0  0  0  0  0  0  0  0
   12.2710    0.8310   23.8130 C   0  0  0  0  0  0  0  0  0  0  0  0
   10.9380    0.4380   23.6920 C   0  0  0  0  0  0  0  0  0  0  0  0
    9.9350    0.9770   24.5420 N   0  0  0  0  0  0  0  0  0  0  0  0
   10.2930    1.7310   25.5770 C   0  0  0  0  0  0  0  0  0  0  0  0
   10.6190    1.1640   26.6330 O   0  0  0  0  0  0  0  0  0  0  0  0
   10.2360    3.0590   25.4100 N   0  0  0  0  0  0  0  0  0  0  0  0
   10.5710   -0.5370   22.7530 C   0  0  0  0  0  0  0  0  0  0  0  0
    9.1250   -0.9200   22.5260 C   0  0  1  0  0  0  0  0  0  0  0  0
    8.2960   -0.6980   23.7910 C   0  0  0  0  0  0  0  0  0  0  0  0
    8.5070    0.7180   24.2940 C   0  0  0  0  0  0  0  0  0  0  0  0
    8.5960   -0.0410   21.3920 C   0  0  0  0  0  0  0  0  0  0  0  0
    9.0720    1.0660   21.1390 O   0  0  0  0  0  0  0  0  0  0  0  0
    7.5570   -0.5730   20.7210 N   0  0  0  0  0  0  0  0  0  0  0  0
    6.7770    0.0380   19.7260 C   0  0  0  0  0  0  0  0  0  0  0  0
    5.6470    0.8130   20.1310 C   0  0  0  0  0  0  0  0  0  0  0  0
    5.2870    1.0350   21.4870 C   0  0  0  0  0  0  0  0  0  0  0  0
    4.2050    1.7990   21.8070 C   0  0  0  0  0  0  0  0  0  0  0  0
    3.4240    2.3770   20.8100 C   0  0  0  0  0  0  0  0  0  0  0  0
    3.7290    2.1930   19.4920 C   0  0  0  0  0  0  0  0  0  0  0  0
    4.8480    1.4110   19.1160 C   0  0  0  0  0  0  0  0  0  0  0  0
    5.2370    1.2100   17.7680 C   0  0  0  0  0  0  0  0  0  0  0  0
    6.3040    0.5180   17.3980 N   0  0  0  0  0  0  0  0  0  0  0  0
    7.0360   -0.0560   18.3600 C   0  0  0  0  0  0  0  0  0  0  0  0
  2  1  1  0
  3  2  2  0
  4  2  1  0
  5  4  2  0
  6  5  1  0
  7  6  1  0
  8  7  1  0
  9  8  2  0
 10  8  1  0
 11  6  2  0
 11  3  1  0
 12 11  1  0
 13 12  1  0
 14 13  1  0
 14  7  1  0
 12 15  1  6
 16 15  2  0
 17 15  1  0
 18 17  1  0
 19 18  1  0
 20 19  2  0
 21 20  1  0
 22 21  2  0
 23 22  1  0
 24 23  2  0
 24 19  1  0
 25 24  1  0
 26 25  2  0
 27 26  1  0
 27 18  2  0
M  END
