
     RDKit          3D

 21 23  0  0  0  0  0  0  0  0999 V2000
    9.2580    0.8310   20.9700 O   0  0  0  0  0  0  0  0  0  0  0  0
    8.7510   -0.2350   21.3170 C   0  0  0  0  0  0  0  0  0  0  0  0
    9.4460   -1.1800   22.2780 C   0  0  0  0  0  0  0  0  0  0  0  0
   10.8700   -0.7890   22.5900 C   0  0  0  0  0  0  0  0  0  0  0  0
   11.9470   -1.3460   21.9140 C   0  0  0  0  0  0  0  0  0  0  0  0
   13.2240   -0.8990   22.2120 C   0  0  0  0  0  0  0  0  0  0  0  0
   13.4080    0.0680   23.1880 C   0  0  0  0  0  0  0  0  0  0  0  0
   11.0250    0.1410   23.5510 N   0  0  0  0  0  0  0  0  0  0  0  0
   12.2680    0.5180   23.8300 C   0  0  0  0  0  0  0  0  0  0  0  0
   12.4350    1.5850   25.1930 Cl  0  0  0  0  0  0  0  0  0  0  0  0
    7.5540   -0.6710   20.8710 N   0  0  0  0  0  0  0  0  0  0  0  0
    6.7660   -0.1020   19.8550 C   0  0  0  0  0  0  0  0  0  0  0  0
    5.6390    0.6970   20.2170 C   0  0  0  0  0  0  0  0  0  0  0  0
    5.1900    0.8750   21.5510 C   0  0  0  0  0  0  0  0  0  0  0  0
    4.1270    1.6870   21.8310 C   0  0  0  0  0  0  0  0  0  0  0  0
    3.4520    2.3470   20.8150 C   0  0  0  0  0  0  0  0  0  0  0  0
    3.8370    2.1980   19.5130 C   0  0  0  0  0  0  0  0  0  0  0  0
    4.9380    1.3700   19.1780 C   0  0  0  0  0  0  0  0  0  0  0  0
    5.3960    1.1880   17.8520 C   0  0  0  0  0  0  0  0  0  0  0  0
    6.4420    0.4430   17.5180 N   0  0  0  0  0  0  0  0  0  0  0  0
    7.0980   -0.1830   18.5050 C   0  0  0  0  0  0  0  0  0  0  0  0
  2  1  2  0
  3  2  1  0
  4  3  1  0
  5  4  2  0
  6  5  1  0
  7  6  2  0
  8  4  1  0
  9  8  2  0
  9  7  1  0
 10  9  1  0
 11  2  1  0
 12 11  1  0
 13 12  1  0
 14 13  2  0
 15 14  1  0
 16 15  2  0
 17 16  1  0
 18 17  2  0
 18 13  1  0
 19 18  1  0
 20 19  2  0
 21 20  1  0
 21 12  2  0
M  END
