
     RDKit          3D

 27 30  0  0  0  0  0  0  0  0999 V2000
   14.1210   -1.7070   21.0960 Cl  0  0  0  0  0  0  0  0  0  0  0  0
   12.9500   -0.8870   22.0900 C   0  0  2  0  0  0  0  0  0  0  0  0
   11.6140   -1.2360   21.9860 C   0  0  0  0  0  0  0  0  0  0  0  0
   13.3670    0.1280   22.9210 C   0  0  0  0  0  0  0  0  0  0  0  0
   12.4300    0.7910   23.6920 C   0  0  0  0  0  0  0  0  0  0  0  0
   11.0780    0.4540   23.6310 C   0  0  2  0  0  0  0  0  0  0  0  0
   10.1330    1.0760   24.6370 C   0  0  0  0  0  0  0  0  0  0  0  0
    8.7130    0.8720   24.3140 N   0  0  0  0  0  0  0  0  0  0  0  0
    7.7180    1.7780   24.5370 C   0  0  0  0  0  0  0  0  0  0  0  0
    6.5490    1.4420   24.4680 O   0  0  0  0  0  0  0  0  0  0  0  0
    8.0980    3.2030   24.8510 C   0  0  0  0  0  0  0  0  0  0  0  0
   10.6620   -0.5460   22.7390 C   0  0  0  0  0  0  0  0  0  0  0  0
    9.1810   -0.8280   22.5690 C   0  0  1  0  0  0  0  0  0  0  0  0
    8.4280   -0.4920   23.8570 C   0  0  0  0  0  0  0  0  0  0  0  0
    8.5960   -0.0520   21.3870 C   0  0  0  0  0  0  0  0  0  0  0  0
    9.0880    1.0030   20.9870 O   0  0  0  0  0  0  0  0  0  0  0  0
    7.4940   -0.6050   20.8310 N   0  0  0  0  0  0  0  0  0  0  0  0
    6.7290   -0.0920   19.7640 C   0  0  1  0  0  0  0  0  0  0  0  0
    5.6210    0.7650   20.0590 C   0  0  0  0  0  0  0  0  0  0  0  0
    5.1640    1.0400   21.3740 C   0  0  0  0  0  0  0  0  0  0  0  0
    4.1280    1.9050   21.5920 C   0  0  0  0  0  0  0  0  0  0  0  0
    3.4860    2.5260   20.5280 C   0  0  0  0  0  0  0  0  0  0  0  0
    3.8820    2.2860   19.2420 C   0  0  0  0  0  0  0  0  0  0  0  0
    4.9600    1.4060   18.9720 C   0  0  0  0  0  0  0  0  0  0  0  0
    5.4330    1.1450   17.6650 C   0  0  0  0  0  0  0  0  0  0  0  0
    6.4510    0.3430   17.3870 N   0  0  0  0  0  0  0  0  0  0  0  0
    7.0670   -0.2560   18.4170 C   0  0  0  0  0  0  0  0  0  0  0  0
  2  1  1  6
  3  2  1  0
  4  2  1  0
  5  4  1  0
  6  5  1  1
  7  6  1  0
  8  7  1  0
  9  8  1  0
 10  9  1  0
 11  9  1  0
 12  6  1  0
 12  3  1  0
 13 12  1  0
 14 13  1  0
 14  8  1  0
 13 15  1  6
 16 15  1  0
 17 15  1  0
 18 17  1  1
 19 18  1  0
 20 19  1  0
 21 20  1  0
 22 21  1  0
 23 22  1  0
 24 23  1  0
 24 19  1  0
 25 24  1  0
 26 25  1  0
 27 26  1  0
 27 18  1  0
M  END
$$$$
