
     RDKit          3D

 26 29  0  0  0  0  0  0  0  0999 V2000
    5.5790   -2.6310   20.8940 O   0  0  0  0  0  0  0  0  0  0  0  0
    6.1110   -1.5400   20.8520 C   0  0  0  0  0  0  0  0  0  0  0  0
    5.7030   -0.5490   19.8030 C   0  0  0  0  0  0  0  0  0  0  0  0
    4.7990    0.5110   20.0930 C   0  0  0  0  0  0  0  0  0  0  0  0
    4.1730    0.7070   21.3540 C   0  0  0  0  0  0  0  0  0  0  0  0
    3.2860    1.7270   21.5480 C   0  0  0  0  0  0  0  0  0  0  0  0
    2.9760    2.6020   20.5160 C   0  0  0  0  0  0  0  0  0  0  0  0
    3.5590    2.4630   19.2860 C   0  0  0  0  0  0  0  0  0  0  0  0
    4.4840    1.4170   19.0400 C   0  0  0  0  0  0  0  0  0  0  0  0
    5.0890    1.1940   17.7770 C   0  0  0  0  0  0  0  0  0  0  0  0
    5.9340    0.2020   17.5140 N   0  0  0  0  0  0  0  0  0  0  0  0
    6.2300   -0.6380   18.5170 C   0  0  0  0  0  0  0  0  0  0  0  0
    7.0630   -1.1670   21.7300 N   0  0  0  0  0  0  0  0  0  0  0  0
    7.6780   -2.0670   22.7150 C   0  0  0  0  0  0  0  0  0  0  0  0
    9.1940   -2.0690   22.5480 C   0  0  0  0  0  0  0  0  0  0  0  0
    7.5630    0.2010   21.8020 C   0  0  0  0  0  0  0  0  0  0  0  0
    9.0610    0.3120   21.7920 C   0  0  0  0  0  0  0  0  0  0  0  0
    9.5910    1.2970   21.2840 O   0  0  0  0  0  0  0  0  0  0  0  0
    9.7570   -0.7200   22.3460 N   0  0  0  0  0  0  0  0  0  0  0  0
   11.1270   -0.5770   22.7090 C   0  0  1  0  0  0  0  0  0  0  0  0
   12.0730   -1.3740   22.0750 C   0  0  0  0  0  0  0  0  0  0  0  0
   13.4100   -1.1110   22.2790 C   0  0  1  0  0  0  0  0  0  0  0  0
   14.5760   -1.8920   21.2560 Cl  0  0  0  0  0  0  0  0  0  0  0  0
   11.5330    0.4160   23.6030 C   0  0  0  0  0  0  0  0  0  0  0  0
   12.8860    0.6220   23.8330 C   0  0  0  0  0  0  0  0  0  0  0  0
   13.8360   -0.1390   23.1660 C   0  0  0  0  0  0  0  0  0  0  0  0
  2  1  1  0
  3  2  1  0
  4  3  1  0
  5  4  1  0
  6  5  1  0
  7  6  1  0
  8  7  1  0
  9  8  1  0
  9  4  1  0
 10  9  1  0
 11 10  1  0
 12 11  1  0
 12  3  1  0
 13  2  1  0
 14 13  1  0
 15 14  1  0
 16 13  1  0
 17 16  1  0
 18 17  1  0
 19 17  1  0
 19 15  1  0
 20 19  1  6
 21 20  1  0
 22 21  1  0
 22 23  1  6
 24 20  1  0
 25 24  1  0
 26 25  1  0
 26 22  1  0
M  END
$$$$
