
     RDKit          3D

 23 25  0  0  0  0  0  0  0  0999 V2000
   13.8470   -1.7930   21.6800 Cl  0  0  0  0  0  0  0  0  0  0  0  0
   12.5010   -0.9910   22.4180 C   0  0  0  0  0  0  0  0  0  0  0  0
   12.6970    0.0320   23.3330 C   0  0  1  0  0  0  0  0  0  0  0  0
   14.2830    0.6520   23.6510 Cl  0  0  0  0  0  0  0  0  0  0  0  0
   11.6070    0.6440   23.9310 C   0  0  0  0  0  0  0  0  0  0  0  0
   10.3310    0.2520   23.5790 C   0  0  0  0  0  0  0  0  0  0  0  0
   11.2190   -1.3760   22.0680 C   0  0  0  0  0  0  0  0  0  0  0  0
   10.1170   -0.7400   22.6390 C   0  0  0  0  0  0  0  0  0  0  0  0
    8.7060   -1.1200   22.2180 C   0  0  1  0  0  0  0  0  0  0  0  0
    7.8490   -1.4520   23.3600 N   0  0  0  0  0  0  0  0  0  0  0  0
    8.0530   -0.0860   21.2680 C   0  0  1  0  0  0  0  0  0  0  0  0
    8.4330    1.0930   21.2280 O   0  0  0  0  0  0  0  0  0  0  0  0
    7.1700   -0.6300   20.4060 N   0  0  0  0  0  0  0  0  0  0  0  0
    6.1670   -0.0770   19.5980 C   0  0  1  0  0  0  0  0  0  0  0  0
    5.2250    0.9070   20.0480 C   0  0  2  0  0  0  0  0  0  0  0  0
    4.7900    1.0320   21.3950 C   0  0  0  0  0  0  0  0  0  0  0  0
    3.7530    1.8600   21.7270 C   0  0  0  0  0  0  0  0  0  0  0  0
    3.0900    2.5940   20.7490 C   0  0  0  0  0  0  0  0  0  0  0  0
    3.4780    2.5230   19.4440 C   0  0  0  0  0  0  0  0  0  0  0  0
    4.5550    1.6870   19.0540 C   0  0  2  0  0  0  0  0  0  0  0  0
    4.9200    1.4880   17.7050 C   0  0  0  0  0  0  0  0  0  0  0  0
    5.7880    0.5810   17.2950 N   0  0  0  0  0  0  0  0  0  0  0  0
    6.3470   -0.1950   18.2260 C   0  0  0  0  0  0  0  0  0  0  0  0
  2  1  1  0
  3  2  1  0
  3  4  1  6
  5  3  1  0
  6  5  1  0
  7  2  1  0
  8  6  1  0
  8  7  1  0
  9  8  1  0
  9 10  1  1
 11  9  1  0
 11 12  1  6
 13 11  1  0
 14 13  1  1
 15 14  1  0
 15 16  1  6
 17 16  1  0
 18 17  1  0
 19 18  1  0
 20 19  1  6
 20 15  1  0
 21 20  1  0
 22 21  1  0
 23 22  1  0
 23 14  1  0
M  END
$$$$
