
     RDKit          3D

 37 40  0  0  0  0  0  0  0  0999 V2000
    5.1110   -2.1730   21.1710 O   0  0  0  0  0  0  0  0  0  0  0  0
    6.2250   -2.3450   21.6500 C   0  0  0  0  0  0  0  0  0  0  0  0
    6.5910   -3.7380   22.0330 C   0  0  0  0  0  0  0  0  0  0  0  0
    7.5530   -4.0240   22.9610 O   0  0  0  0  0  0  0  0  0  0  0  0
    7.5320   -5.3910   23.1240 C   0  0  0  0  0  0  0  0  0  0  0  0
    6.6110   -5.9410   22.3410 C   0  0  0  0  0  0  0  0  0  0  0  0
    5.9970   -4.8820   21.6220 C   0  0  0  0  0  0  0  0  0  0  0  0
    7.1090   -1.3390   21.8610 N   0  0  0  0  0  0  0  0  0  0  0  0
    8.3880   -1.5360   22.4750 C   0  0  0  0  0  0  0  0  0  0  0  0
    8.5100   -1.5010   23.8630 C   0  0  0  0  0  0  0  0  0  0  0  0
    9.7600   -1.5660   24.4530 C   0  0  0  0  0  0  0  0  0  0  0  0
    9.5350   -1.6730   21.6960 C   0  0  0  0  0  0  0  0  0  0  0  0
   10.7820   -1.7280   22.2970 C   0  0  0  0  0  0  0  0  0  0  0  0
   10.9160   -1.6770   23.6850 C   0  0  0  0  0  0  0  0  0  0  0  0
   12.2830   -1.7740   24.3770 C   0  0  2  0  0  0  0  0  0  0  0  0
   13.4420   -1.9020   23.3840 C   0  0  0  0  0  0  0  0  0  0  0  0
   12.3150   -3.0000   25.2950 C   0  0  0  0  0  0  0  0  0  0  0  0
   12.5220   -0.5300   25.2390 C   0  0  0  0  0  0  0  0  0  0  0  0
    6.6970    0.0540   21.5350 C   0  0  2  0  0  0  0  0  0  0  0  0
    6.1180    0.1960   20.1340 C   0  0  0  0  0  0  0  0  0  0  0  0
    6.8220   -0.2080   19.0060 C   0  0  0  0  0  0  0  0  0  0  0  0
    6.4710    0.0950   17.7510 N   0  0  0  0  0  0  0  0  0  0  0  0
    5.3520    0.8080   17.5810 C   0  0  0  0  0  0  0  0  0  0  0  0
    4.5590    1.2330   18.6290 C   0  0  0  0  0  0  0  0  0  0  0  0
    4.9530    0.9190   19.9180 C   0  0  0  0  0  0  0  0  0  0  0  0
    7.7810    1.1120   21.7980 C   0  0  0  0  0  0  0  0  0  0  0  0
    8.6900    1.3060   20.9930 O   0  0  0  0  0  0  0  0  0  0  0  0
    7.6200    1.8200   22.9120 N   0  0  0  0  0  0  0  0  0  0  0  0
    8.5680    2.8460   23.3180 C   0  0  0  0  0  0  0  0  0  0  0  0
    9.8250    2.2430   23.9360 C   0  0  0  0  0  0  0  0  0  0  0  0
   11.0120    3.1660   23.8020 C   0  0  0  0  0  0  0  0  0  0  0  0
   11.5580    3.4230   22.5490 C   0  0  0  0  0  0  0  0  0  0  0  0
   12.5850    4.3280   22.4450 C   0  0  0  0  0  0  0  0  0  0  0  0
   13.1120    4.5560   21.2160 F   0  0  0  0  0  0  0  0  0  0  0  0
   13.1080    5.0000   23.5140 C   0  0  0  0  0  0  0  0  0  0  0  0
   12.5660    4.7460   24.7630 C   0  0  0  0  0  0  0  0  0  0  0  0
   11.5320    3.8310   24.9060 C   0  0  0  0  0  0  0  0  0  0  0  0
  2  1  2  0
  3  2  1  0
  4  3  1  0
  5  4  1  0
  6  5  2  0
  7  6  1  0
  7  3  2  0
  8  2  1  0
  9  8  1  0
 10  9  2  0
 11 10  1  0
 12  9  1  0
 13 12  2  0
 14 13  1  0
 14 11  2  0
 15 14  1  0
 15 16  1  6
 17 15  1  0
 18 15  1  0
 19  8  1  0
 20 19  1  0
 21 20  2  0
 22 21  1  0
 23 22  2  0
 24 23  1  0
 25 24  2  0
 25 20  1  0
 19 26  1  6
 27 26  2  0
 28 26  1  0
 29 28  1  0
 30 29  1  0
 31 30  1  0
 32 31  2  0
 33 32  1  0
 34 33  1  0
 35 33  2  0
 36 35  1  0
 37 36  2  0
 37 31  1  0
M  END
