
     RDKit          3D

 22 24  0  0  0  0  0  0  0  0999 V2000
   14.5360   -1.7700   20.5470 N   0  0  0  0  0  0  0  0  0  0  0  0
   13.7650   -1.3490   21.2780 C   0  0  0  0  0  0  0  0  0  0  0  0
   12.8140   -0.7840   22.2040 C   0  0  0  0  0  0  0  0  0  0  0  0
   13.2460    0.0780   23.2080 C   0  0  0  0  0  0  0  0  0  0  0  0
   12.3150    0.7570   23.9750 C   0  0  0  0  0  0  0  0  0  0  0  0
   10.9590    0.5670   23.7530 C   0  0  0  0  0  0  0  0  0  0  0  0
   11.4500   -0.9990   22.0080 C   0  0  0  0  0  0  0  0  0  0  0  0
   10.5130   -0.3140   22.7740 C   0  0  0  0  0  0  0  0  0  0  0  0
    9.0370   -0.5290   22.5370 C   0  0  0  0  0  0  0  0  0  0  0  0
    8.4950    0.2580   21.3610 C   0  0  0  0  0  0  0  0  0  0  0  0
    9.0230    1.2980   20.9710 O   0  0  0  0  0  0  0  0  0  0  0  0
    7.3810   -0.2710   20.8140 N   0  0  0  0  0  0  0  0  0  0  0  0
    6.5930    0.2490   19.7710 C   0  0  0  0  0  0  0  0  0  0  0  0
    5.4890    1.0920   20.1060 C   0  0  0  0  0  0  0  0  0  0  0  0
    5.1390    1.4460   21.4360 C   0  0  0  0  0  0  0  0  0  0  0  0
    4.0600    2.2460   21.6890 C   0  0  0  0  0  0  0  0  0  0  0  0
    3.2790    2.7330   20.6470 C   0  0  0  0  0  0  0  0  0  0  0  0
    3.5800    2.4260   19.3490 C   0  0  0  0  0  0  0  0  0  0  0  0
    4.6940    1.6020   19.0430 C   0  0  0  0  0  0  0  0  0  0  0  0
    5.0590    1.2510   17.7250 C   0  0  0  0  0  0  0  0  0  0  0  0
    6.0920    0.4850   17.4150 N   0  0  0  0  0  0  0  0  0  0  0  0
    6.8280    0.0000   18.4190 C   0  0  0  0  0  0  0  0  0  0  0  0
  2  1  3  0
  3  2  1  0
  4  3  2  0
  5  4  1  0
  6  5  2  0
  7  3  1  0
  8  7  2  0
  8  6  1  0
  9  8  1  0
 10  9  1  0
 11 10  2  0
 12 10  1  0
 13 12  1  0
 14 13  1  0
 15 14  2  0
 16 15  1  0
 17 16  2  0
 18 17  1  0
 19 18  2  0
 19 14  1  0
 20 19  1  0
 21 20  2  0
 22 21  1  0
 22 13  2  0
M  END
