
     RDKit          3D

 25 27  0  0  0  0  0  0  0  0999 V2000
   13.4950    0.6360   23.7070 Cl  0  0  0  0  0  0  0  0  0  0  0  0
   11.8330    0.1800   23.9280 C   0  0  0  0  0  0  0  0  0  0  0  0
   11.1850   -0.4880   22.9110 C   0  0  0  0  0  0  0  0  0  0  0  0
   11.2130    0.4590   25.1310 C   0  0  0  0  0  0  0  0  0  0  0  0
    9.9030    0.0310   25.3240 C   0  0  0  0  0  0  0  0  0  0  0  0
    9.2660    0.3020   26.5330 N   0  0  0  0  0  0  0  0  0  0  0  0
    7.9070   -0.0780   26.8970 C   0  0  2  0  0  0  0  0  0  0  0  0
    6.8630    0.9860   26.5060 C   0  0  1  0  0  0  0  0  0  0  0  0
    6.5150    0.9210   25.1220 O   0  0  0  0  0  0  0  0  0  0  0  0
    5.6730    0.6270   27.3830 C   0  0  0  0  0  0  0  0  0  0  0  0
    6.2710    0.1530   28.7020 C   0  0  0  0  0  0  0  0  0  0  0  0
    7.7260   -0.2230   28.4150 C   0  0  0  0  0  0  0  0  0  0  0  0
    9.2440   -0.6530   24.3060 C   0  0  0  0  0  0  0  0  0  0  0  0
    9.8730   -0.9030   23.0920 C   0  0  0  0  0  0  0  0  0  0  0  0
    9.1190   -1.5540   21.9600 C   0  0  0  0  0  0  0  0  0  0  0  0
    8.4660   -0.5000   21.0900 C   0  0  0  0  0  0  0  0  0  0  0  0
    9.0050    0.5820   20.8590 O   0  0  0  0  0  0  0  0  0  0  0  0
    7.2660   -0.8570   20.5910 N   0  0  0  0  0  0  0  0  0  0  0  0
    6.5940   -0.1160   19.5980 C   0  0  0  0  0  0  0  0  0  0  0  0
    5.5020    0.6920   19.9510 C   0  0  0  0  0  0  0  0  0  0  0  0
    5.0420    0.8310   21.3790 C   0  0  0  0  0  0  0  0  0  0  0  0
    7.0110   -0.1340   18.2670 C   0  0  0  0  0  0  0  0  0  0  0  0
    6.4220    0.5740   17.3010 N   0  0  0  0  0  0  0  0  0  0  0  0
    5.3670    1.3240   17.6480 C   0  0  0  0  0  0  0  0  0  0  0  0
    4.8830    1.4100   18.9360 C   0  0  0  0  0  0  0  0  0  0  0  0
  2  1  1  0
  3  2  2  0
  4  2  1  0
  5  4  2  0
  6  5  1  0
  7  6  1  1
  8  7  1  0
  8  9  1  6
 10  8  1  0
 11 10  1  0
 12  7  1  0
 12 11  1  0
 13  5  1  0
 14 13  2  0
 14  3  1  0
 15 14  1  0
 16 15  1  0
 17 16  2  0
 18 16  1  0
 19 18  1  0
 20 19  2  0
 21 20  1  0
 22 19  1  0
 23 22  2  0
 24 23  1  0
 25 24  2  0
 25 20  1  0
M  END
