
     RDKit          3D

 30 33  0  0  0  0  0  0  0  0999 V2000
   10.9240    3.0070   24.5050 O   0  0  0  0  0  0  0  0  0  0  0  0
   10.4700    1.9600   24.0730 C   0  0  0  0  0  0  0  0  0  0  0  0
    9.1260    1.6510   24.1700 N   0  0  0  0  0  0  0  0  0  0  0  0
    8.2600    2.4750   24.9970 C   0  0  0  0  0  0  0  0  0  0  0  0
    7.6590    3.6910   24.3100 C   0  0  0  0  0  0  0  0  0  0  0  0
    7.3730    4.6980   24.9570 O   0  0  0  0  0  0  0  0  0  0  0  0
    7.4460    3.5960   23.0010 N   0  0  0  0  0  0  0  0  0  0  0  0
    6.8390    4.6650   22.2310 C   0  0  0  0  0  0  0  0  0  0  0  0
   11.3210    0.9870   23.3610 C   0  0  0  0  0  0  0  0  0  0  0  0
   12.7010    1.2000   23.2930 C   0  0  0  0  0  0  0  0  0  0  0  0
   13.5250    0.2740   22.6800 C   0  0  0  0  0  0  0  0  0  0  0  0
   12.9640   -0.8550   22.1220 C   0  0  0  0  0  0  0  0  0  0  0  0
   13.9860   -1.9880   21.2840 Cl  0  0  0  0  0  0  0  0  0  0  0  0
   11.6020   -1.0810   22.1540 C   0  0  0  0  0  0  0  0  0  0  0  0
   10.7610   -0.1470   22.7600 C   0  0  0  0  0  0  0  0  0  0  0  0
    9.2610   -0.3380   22.7270 C   0  0  1  0  0  0  0  0  0  0  0  0
    8.6340    0.2850   23.9720 C   0  0  0  0  0  0  0  0  0  0  0  0
    8.6980    0.3460   21.4790 C   0  0  0  0  0  0  0  0  0  0  0  0
    9.0940    1.4480   21.1030 O   0  0  0  0  0  0  0  0  0  0  0  0
    7.6740   -0.3110   20.8910 N   0  0  0  0  0  0  0  0  0  0  0  0
    6.8270    0.1550   19.8580 C   0  0  0  0  0  0  0  0  0  0  0  0
    5.6560    0.8940   20.2280 C   0  0  0  0  0  0  0  0  0  0  0  0
    5.2980    1.1840   21.5730 C   0  0  0  0  0  0  0  0  0  0  0  0
    4.2320    1.9860   21.8590 C   0  0  0  0  0  0  0  0  0  0  0  0
    3.4580    2.5300   20.8370 C   0  0  0  0  0  0  0  0  0  0  0  0
    3.7410    2.2560   19.5270 C   0  0  0  0  0  0  0  0  0  0  0  0
    4.8480    1.4370   19.1860 C   0  0  0  0  0  0  0  0  0  0  0  0
    5.2460    1.1920   17.8480 C   0  0  0  0  0  0  0  0  0  0  0  0
    6.3310    0.5100   17.5070 N   0  0  0  0  0  0  0  0  0  0  0  0
    7.0890    0.0110   18.4940 C   0  0  0  0  0  0  0  0  0  0  0  0
  2  1  2  0
  3  2  1  0
  4  3  1  0
  5  4  1  0
  6  5  2  0
  7  5  1  0
  8  7  1  0
  9  2  1  0
 10  9  2  0
 11 10  1  0
 12 11  2  0
 13 12  1  0
 14 12  1  0
 15 14  2  0
 15  9  1  0
 16 15  1  0
 17 16  1  0
 17  3  1  0
 16 18  1  6
 19 18  2  0
 20 18  1  0
 21 20  1  0
 22 21  1  0
 23 22  2  0
 24 23  1  0
 25 24  2  0
 26 25  1  0
 27 26  2  0
 27 22  1  0
 28 27  1  0
 29 28  2  0
 30 29  1  0
 30 21  2  0
M  END
