
     RDKit          3D

 35 40  0  0  0  0  0  0  0  0999 V2000
    9.2980    1.2840   20.8720 O   0  0  0  0  0  0  0  0  0  0  0  0
    8.8290    0.3730   21.5340 C   0  0  0  0  0  0  0  0  0  0  0  0
    7.7260   -0.3040   21.1290 N   0  0  0  0  0  0  0  0  0  0  0  0
    6.9110    0.0350   20.0280 C   0  0  0  0  0  0  0  0  0  0  0  0
    5.7270    0.8040   20.2660 C   0  0  0  0  0  0  0  0  0  0  0  0
    5.2140    1.0810   21.5590 C   0  0  0  0  0  0  0  0  0  0  0  0
    4.0880    1.8380   21.7210 C   0  0  0  0  0  0  0  0  0  0  0  0
    3.4220    2.3620   20.6190 C   0  0  0  0  0  0  0  0  0  0  0  0
    3.8750    2.1230   19.3540 C   0  0  0  0  0  0  0  0  0  0  0  0
    5.0320    1.3310   19.1410 C   0  0  0  0  0  0  0  0  0  0  0  0
    5.5420    1.0390   17.8540 C   0  0  0  0  0  0  0  0  0  0  0  0
    6.6180    0.2990   17.6310 N   0  0  0  0  0  0  0  0  0  0  0  0
    7.2700   -0.1860   18.6970 C   0  0  0  0  0  0  0  0  0  0  0  0
    9.4040    0.0760   22.9280 C   0  0  1  0  0  0  0  0  0  0  0  0
   10.9470    0.1960   22.9310 C   0  0  0  0  0  0  0  0  0  0  0  0
   11.7510   -0.6080   22.1170 C   0  0  0  0  0  0  0  0  0  0  0  0
   13.1140   -0.3620   22.0470 C   0  0  0  0  0  0  0  0  0  0  0  0
   14.0800   -1.2520   20.8980 Cl  0  0  0  0  0  0  0  0  0  0  0  0
   13.7150    0.6190   22.7980 C   0  0  0  0  0  0  0  0  0  0  0  0
   12.9420    1.3990   23.6330 C   0  0  0  0  0  0  0  0  0  0  0  0
   11.5750    1.2060   23.6750 C   0  0  0  0  0  0  0  0  0  0  0  0
   10.8830    2.1490   24.3930 O   0  0  0  0  0  0  0  0  0  0  0  0
    9.5730    1.7580   24.8120 C   0  0  0  0  0  0  0  0  0  0  0  0
    8.7520    1.2840   23.6400 C   0  0  0  0  0  0  0  0  0  0  0  0
    8.9450   -1.1700   23.7150 C   0  0  0  0  0  0  0  0  0  0  0  0
    9.2230   -2.5090   23.0730 C   0  0  0  0  0  0  0  0  0  0  0  0
    9.2170   -2.6520   21.8600 O   0  0  0  0  0  0  0  0  0  0  0  0
    9.4310   -3.5470   23.9120 N   0  0  0  0  0  0  0  0  0  0  0  0
    8.4940   -4.6560   24.1650 C   0  0  2  0  0  0  0  0  0  0  0  0
    7.8530   -4.4620   25.5380 C   0  0  0  0  0  0  0  0  0  0  0  0
   10.5660   -3.7410   24.8160 C   0  0  0  0  0  0  0  0  0  0  0  0
   10.1530   -4.9930   25.5930 C   0  0  2  0  0  0  0  0  0  0  0  0
    9.4570   -5.7990   24.4920 C   0  0  0  0  0  0  0  0  0  0  0  0
    9.0100   -4.5670   26.4370 N   0  0  0  0  0  0  0  0  0  0  0  0
    8.7600   -5.4570   27.5720 C   0  0  0  0  0  0  0  0  0  0  0  0
  2  1  2  0
  3  2  1  0
  4  3  1  0
  5  4  1  0
  6  5  2  0
  7  6  1  0
  8  7  2  0
  9  8  1  0
 10  9  2  0
 10  5  1  0
 11 10  1  0
 12 11  2  0
 13 12  1  0
 13  4  2  0
 14  2  1  0
 15 14  1  0
 16 15  2  0
 17 16  1  0
 18 17  1  0
 19 17  2  0
 20 19  1  0
 21 20  2  0
 21 15  1  0
 22 21  1  0
 23 22  1  0
 24 23  1  0
 24 14  1  0
 14 25  1  1
 26 25  1  0
 27 26  2  0
 28 26  1  0
 29 28  1  0
 29 30  1  1
 31 28  1  0
 32 31  1  6
 33 32  1  0
 33 29  1  0
 34 32  1  0
 34 30  1  0
 35 34  1  0
M  END
