
     RDKit          3D

 34 38  0  0  0  0  0  0  0  0999 V2000
    6.5560    0.9340   26.0320 O   0  0  0  0  0  0  0  0  0  0  0  0
    7.4350    1.7910   25.3000 S   0  0  2  0  0  0  0  0  0  0  0  0
    8.1520    2.8100   26.0010 O   0  0  0  0  0  0  0  0  0  0  0  0
    6.5090    2.5620   23.9930 C   0  0  0  0  0  0  0  0  0  0  0  0
    6.7600    4.0460   23.7140 C   0  0  2  0  0  0  0  0  0  0  0  0
    5.4750    4.8720   23.8320 C   0  0  0  0  0  0  0  0  0  0  0  0
    5.7190    6.3090   23.4350 C   0  0  0  0  0  0  0  0  0  0  0  0
    6.2720    6.4010   22.1120 O   0  0  0  0  0  0  0  0  0  0  0  0
    7.5390    5.7320   22.0460 C   0  0  0  0  0  0  0  0  0  0  0  0
    7.4000    4.2570   22.3420 C   0  0  0  0  0  0  0  0  0  0  0  0
    8.5390    0.8390   24.5670 N   0  0  0  0  0  0  0  0  0  0  0  0
    9.8850    0.8200   25.1520 C   0  0  0  0  0  0  0  0  0  0  0  0
    8.1390   -0.4500   23.9740 C   0  0  0  0  0  0  0  0  0  0  0  0
    9.0090   -0.7440   22.7510 C   0  0  2  0  0  0  0  0  0  0  0  0
   10.4810   -0.5120   23.0530 C   0  0  0  0  0  0  0  0  0  0  0  0
   10.8790    0.2380   24.1740 C   0  0  0  0  0  0  0  0  0  0  0  0
   12.2390    0.4260   24.4180 C   0  0  0  0  0  0  0  0  0  0  0  0
   13.1990   -0.1120   23.5810 C   0  0  0  0  0  0  0  0  0  0  0  0
   11.4570   -1.0590   22.2160 C   0  0  0  0  0  0  0  0  0  0  0  0
   12.7960   -0.8430   22.4900 C   0  0  0  0  0  0  0  0  0  0  0  0
   14.0000   -1.4680   21.3960 Cl  0  0  0  0  0  0  0  0  0  0  0  0
    8.5380    0.0450   21.5280 C   0  0  0  0  0  0  0  0  0  0  0  0
    9.1210    1.0520   21.1380 O   0  0  0  0  0  0  0  0  0  0  0  0
    7.4140   -0.4410   20.9420 N   0  0  0  0  0  0  0  0  0  0  0  0
    6.7030    0.0760   19.8330 C   0  0  0  0  0  0  0  0  0  0  0  0
    5.5420    0.8790   20.0720 C   0  0  0  0  0  0  0  0  0  0  0  0
    5.0020    1.1210   21.3620 C   0  0  0  0  0  0  0  0  0  0  0  0
    3.9070    1.9210   21.5270 C   0  0  0  0  0  0  0  0  0  0  0  0
    3.2890    2.5130   20.4330 C   0  0  0  0  0  0  0  0  0  0  0  0
    3.7590    2.2990   19.1680 C   0  0  0  0  0  0  0  0  0  0  0  0
    4.8930    1.4730   18.9500 C   0  0  0  0  0  0  0  0  0  0  0  0
    5.4190    1.2030   17.6630 C   0  0  0  0  0  0  0  0  0  0  0  0
    6.4790    0.4390   17.4390 N   0  0  0  0  0  0  0  0  0  0  0  0
    7.0910   -0.0990   18.5020 C   0  0  0  0  0  0  0  0  0  0  0  0
  2  1  2  0
  3  2  2  0
  2  4  1  6
  5  4  1  6
  6  5  1  0
  7  6  1  0
  8  7  1  0
  9  8  1  0
 10  5  1  0
 10  9  1  0
 11  2  1  0
 12 11  1  0
 13 11  1  0
 14 13  1  0
 15 14  1  0
 16 15  2  0
 16 12  1  0
 17 16  1  0
 18 17  2  0
 19 15  1  0
 20 19  2  0
 20 18  1  0
 21 20  1  0
 14 22  1  6
 23 22  2  0
 24 22  1  0
 25 24  1  0
 26 25  1  0
 27 26  2  0
 28 27  1  0
 29 28  2  0
 30 29  1  0
 31 30  2  0
 31 26  1  0
 32 31  1  0
 33 32  2  0
 34 33  1  0
 34 25  2  0
M  END
