
     RDKit          3D

 33 37  0  0  0  0  0  0  0  0999 V2000
   14.1060   -1.5300   21.2710 Cl  0  0  0  0  0  0  0  0  0  0  0  0
   12.8980   -0.8060   22.2940 C   0  0  0  0  0  0  0  0  0  0  0  0
   11.5780   -1.1960   22.1570 C   0  0  0  0  0  0  0  0  0  0  0  0
   13.2740    0.1630   23.1930 C   0  0  0  0  0  0  0  0  0  0  0  0
   12.3080    0.7450   23.9900 C   0  0  0  0  0  0  0  0  0  0  0  0
   10.9640    0.3930   23.8730 C   0  0  0  0  0  0  0  0  0  0  0  0
    9.9790    1.0870   24.7890 C   0  0  0  0  0  0  0  0  0  0  0  0
    8.5830    0.6850   24.5710 N   0  0  0  0  0  0  0  0  0  0  0  0
    7.3110    1.5430   25.0180 S   0  0  2  0  0  0  0  0  0  0  0  0
    7.3290    1.6390   26.4360 O   0  0  0  0  0  0  0  0  0  0  0  0
    6.1740    1.0250   24.3360 O   0  0  0  0  0  0  0  0  0  0  0  0
    7.7170    2.9780   24.4390 N   0  0  0  0  0  0  0  0  0  0  0  0
    7.8030    4.1780   25.2990 C   0  0  0  0  0  0  0  0  0  0  0  0
    7.1770    5.2960   24.4660 C   0  0  0  0  0  0  0  0  0  0  0  0
    7.3970    3.3970   23.0570 C   0  0  0  0  0  0  0  0  0  0  0  0
    6.4620    4.5720   23.3020 C   0  0  2  0  0  0  0  0  0  0  0  0
    6.2440    5.4420   22.0700 C   0  0  0  0  0  0  0  0  0  0  0  0
   10.5930   -0.5770   22.9290 C   0  0  0  0  0  0  0  0  0  0  0  0
    9.1270   -0.9010   22.7220 C   0  0  1  0  0  0  0  0  0  0  0  0
    8.3520   -0.6620   24.0150 C   0  0  0  0  0  0  0  0  0  0  0  0
    8.5520   -0.0710   21.5710 C   0  0  0  0  0  0  0  0  0  0  0  0
    9.0680    0.9850   21.2050 O   0  0  0  0  0  0  0  0  0  0  0  0
    7.4350   -0.5890   20.9990 N   0  0  0  0  0  0  0  0  0  0  0  0
    6.6840   -0.0460   19.9310 C   0  0  1  0  0  0  0  0  0  0  0  0
    5.5610    0.7890   20.2340 C   0  0  0  0  0  0  0  0  0  0  0  0
    5.0720    1.0110   21.5480 C   0  0  0  0  0  0  0  0  0  0  0  0
    3.9790    1.8000   21.7700 C   0  0  0  0  0  0  0  0  0  0  0  0
    3.3280    2.4220   20.7090 C   0  0  0  0  0  0  0  0  0  0  0  0
    3.7620    2.2460   19.4270 C   0  0  0  0  0  0  0  0  0  0  0  0
    4.8780    1.4160   19.1510 C   0  0  0  0  0  0  0  0  0  0  0  0
    5.3380    1.1480   17.8370 C   0  0  0  0  0  0  0  0  0  0  0  0
    6.3710    0.3640   17.5550 N   0  0  0  0  0  0  0  0  0  0  0  0
    7.0170   -0.2040   18.5830 C   0  0  0  0  0  0  0  0  0  0  0  0
  2  1  1  0
  3  2  1  0
  4  2  1  0
  5  4  1  0
  6  5  1  0
  7  6  1  0
  8  7  1  0
  9  8  1  0
  9 10  1  1
 11  9  1  0
 12  9  1  0
 13 12  1  0
 14 13  1  0
 15 12  1  0
 16 15  1  0
 16 14  1  0
 16 17  1  6
 18  6  1  0
 18  3  1  0
 19 18  1  0
 20 19  1  0
 20  8  1  0
 19 21  1  6
 22 21  1  0
 23 21  1  0
 24 23  1  1
 25 24  1  0
 26 25  1  0
 27 26  1  0
 28 27  1  0
 29 28  1  0
 30 29  1  0
 30 25  1  0
 31 30  1  0
 32 31  1  0
 33 32  1  0
 33 24  1  0
M  END
$$$$
