
     RDKit          3D

 23 26  0  0  0  0  0  0  0  0999 V2000
    9.2620    1.1370   20.9780 O   0  0  0  0  0  0  0  0  0  0  0  0
    8.7720    0.0320   21.1540 C   0  0  0  0  0  0  0  0  0  0  0  0
    9.4420   -1.1930   21.7520 C   0  0  1  0  0  0  0  0  0  0  0  0
   10.7590   -0.8820   22.4430 C   0  0  0  0  0  0  0  0  0  0  0  0
   10.9030    0.0770   23.4370 C   0  0  0  0  0  0  0  0  0  0  0  0
   12.1640    0.5210   23.8110 C   0  0  0  0  0  0  0  0  0  0  0  0
   13.2970    0.0180   23.1830 C   0  0  0  0  0  0  0  0  0  0  0  0
   11.8940   -1.4360   21.8680 C   0  0  0  0  0  0  0  0  0  0  0  0
   13.1360   -0.9480   22.2030 C   0  0  0  0  0  0  0  0  0  0  0  0
   14.5080   -1.4430   21.2480 Cl  0  0  0  0  0  0  0  0  0  0  0  0
    7.4950   -0.3480   20.8880 N   0  0  0  0  0  0  0  0  0  0  0  0
    7.0930   -1.5260   21.6850 C   0  0  0  0  0  0  0  0  0  0  0  0
    8.3060   -1.7720   22.5970 C   0  0  0  0  0  0  0  0  0  0  0  0
    6.6610    0.2180   19.8750 C   0  0  0  0  0  0  0  0  0  0  0  0
    5.5410    1.0410   20.1900 C   0  0  0  0  0  0  0  0  0  0  0  0
    5.1640    1.4060   21.5100 C   0  0  0  0  0  0  0  0  0  0  0  0
    4.1030    2.2370   21.7330 C   0  0  0  0  0  0  0  0  0  0  0  0
    3.3650    2.7400   20.6730 C   0  0  0  0  0  0  0  0  0  0  0  0
    3.6870    2.4180   19.3850 C   0  0  0  0  0  0  0  0  0  0  0  0
    4.7850    1.5690   19.1070 C   0  0  0  0  0  0  0  0  0  0  0  0
    5.2060    1.2510   17.7910 C   0  0  0  0  0  0  0  0  0  0  0  0
    6.2570    0.4990   17.5050 N   0  0  0  0  0  0  0  0  0  0  0  0
    6.9520    0.0000   18.5340 C   0  0  0  0  0  0  0  0  0  0  0  0
  2  1  2  0
  3  2  1  0
  3  4  1  1
  5  4  2  0
  6  5  1  0
  7  6  2  0
  8  4  1  0
  9  8  2  0
  9  7  1  0
 10  9  1  0
 11  2  1  0
 12 11  1  0
 13 12  1  0
 13  3  1  0
 14 11  1  0
 15 14  1  0
 16 15  2  0
 17 16  1  0
 18 17  2  0
 19 18  1  0
 20 19  2  0
 20 15  1  0
 21 20  1  0
 22 21  2  0
 23 22  1  0
 23 14  2  0
M  END
