
     RDKit          3D

 25 28  0  0  0  0  0  0  0  0999 V2000
   14.3610   -1.6480   20.8380 Cl  0  0  0  0  0  0  0  0  0  0  0  0
   13.3360   -0.7610   21.9270 C   0  0  0  0  0  0  0  0  0  0  0  0
   13.8940    0.1910   22.7520 C   0  0  0  0  0  0  0  0  0  0  0  0
   13.0750    0.9110   23.6040 C   0  0  0  0  0  0  0  0  0  0  0  0
   11.9790   -1.0110   21.9190 C   0  0  0  0  0  0  0  0  0  0  0  0
   11.1370   -0.2900   22.7600 C   0  0  0  0  0  0  0  0  0  0  0  0
   11.7100    0.6610   23.6140 C   0  0  0  0  0  0  0  0  0  0  0  0
   10.9910    1.3500   24.5630 O   0  0  0  0  0  0  0  0  0  0  0  0
    9.5530    1.3350   24.4120 C   0  0  0  0  0  0  0  0  0  0  0  0
    9.0280   -0.0380   24.0850 C   0  0  0  0  0  0  0  0  0  0  0  0
    9.6400   -0.5330   22.7630 C   0  0  1  0  0  0  0  0  0  0  0  0
    9.0100    0.1870   21.5690 C   0  0  0  0  0  0  0  0  0  0  0  0
    9.5440    1.1520   21.0320 O   0  0  0  0  0  0  0  0  0  0  0  0
    7.7580   -0.2050   21.2710 N   0  0  0  0  0  0  0  0  0  0  0  0
    6.9840    0.0440   20.1230 C   0  0  0  0  0  0  0  0  0  0  0  0
    7.4680    0.0390   18.8150 C   0  0  0  0  0  0  0  0  0  0  0  0
    6.7930    0.5090   17.7560 N   0  0  0  0  0  0  0  0  0  0  0  0
    5.5920    1.0540   17.9720 C   0  0  0  0  0  0  0  0  0  0  0  0
    5.7280    0.6230   20.3270 C   0  0  0  0  0  0  0  0  0  0  0  0
    5.0190    1.0130   21.4720 N   0  0  0  0  0  0  0  0  0  0  0  0
    5.3530    0.7340   22.8680 C   0  0  0  0  0  0  0  0  0  0  0  0
    5.0450    1.1600   19.2430 C   0  0  0  0  0  0  0  0  0  0  0  0
    3.9400    1.8370   19.7370 N   0  0  0  0  0  0  0  0  0  0  0  0
    3.9080    1.7520   21.1010 C   0  0  0  0  0  0  0  0  0  0  0  0
    3.0670    2.2170   21.8580 O   0  0  0  0  0  0  0  0  0  0  0  0
  2  1  1  0
  3  2  2  0
  4  3  1  0
  5  2  1  0
  6  5  2  0
  7  6  1  0
  7  4  2  0
  8  7  1  0
  9  8  1  0
 10  9  1  0
 11 10  1  0
 11  6  1  0
 11 12  1  6
 13 12  2  0
 14 12  1  0
 15 14  1  0
 16 15  2  0
 17 16  1  0
 18 17  2  0
 19 15  1  0
 20 19  1  0
 21 20  1  0
 22 19  2  0
 22 18  1  0
 23 22  1  0
 24 23  1  0
 24 20  1  0
 25 24  2  0
M  END
