
     RDKit          3D

 26 29  0  0  0  0  0  0  0  0999 V2000
    9.6060    1.2620   21.0290 O   0  0  0  0  0  0  0  0  0  0  0  0
    9.1720    0.2850   21.6180 C   0  0  0  0  0  0  0  0  0  0  0  0
    9.8530   -0.2250   22.9140 C   0  0  1  0  0  0  0  0  0  0  0  0
   11.3590   -0.0860   22.8670 C   0  0  0  0  0  0  0  0  0  0  0  0
   12.0970   -0.7060   21.8650 C   0  0  0  0  0  0  0  0  0  0  0  0
   13.4590   -0.4910   21.7970 C   0  0  0  0  0  0  0  0  0  0  0  0
   14.3900   -1.3920   20.6410 Cl  0  0  0  0  0  0  0  0  0  0  0  0
   14.1080    0.3620   22.6630 C   0  0  0  0  0  0  0  0  0  0  0  0
   13.3890    0.9840   23.6670 C   0  0  0  0  0  0  0  0  0  0  0  0
   12.0290    0.7440   23.7730 C   0  0  0  0  0  0  0  0  0  0  0  0
   11.4300    1.2740   24.8900 O   0  0  0  0  0  0  0  0  0  0  0  0
   10.1070    0.7920   25.2020 C   0  0  0  0  0  0  0  0  0  0  0  0
    9.2180    0.6760   23.9810 C   0  0  0  0  0  0  0  0  0  0  0  0
    9.3550   -1.5710   23.0000 O   0  0  0  0  0  0  0  0  0  0  0  0
   10.2810   -2.6040   23.3480 C   0  0  0  0  0  0  0  0  0  0  0  0
    8.0570   -0.3710   21.2290 N   0  0  0  0  0  0  0  0  0  0  0  0
    7.2490    0.0100   20.1390 C   0  0  0  0  0  0  0  0  0  0  0  0
    6.0470    0.7350   20.4020 C   0  0  0  0  0  0  0  0  0  0  0  0
    5.5770    1.0370   21.7060 C   0  0  0  0  0  0  0  0  0  0  0  0
    4.4390    1.7710   21.8890 C   0  0  0  0  0  0  0  0  0  0  0  0
    3.7120    2.2340   20.7990 C   0  0  0  0  0  0  0  0  0  0  0  0
    4.1220    1.9650   19.5240 C   0  0  0  0  0  0  0  0  0  0  0  0
    5.2980    1.2140   19.2900 C   0  0  0  0  0  0  0  0  0  0  0  0
    5.7940    0.9400   17.9940 C   0  0  0  0  0  0  0  0  0  0  0  0
    6.9130    0.2730   17.7490 N   0  0  0  0  0  0  0  0  0  0  0  0
    7.6110   -0.1790   18.8040 C   0  0  0  0  0  0  0  0  0  0  0  0
  2  1  2  0
  3  2  1  0
  4  3  1  0
  5  4  2  0
  6  5  1  0
  7  6  1  0
  8  6  2  0
  9  8  1  0
 10  9  2  0
 10  4  1  0
 11 10  1  0
 12 11  1  0
 13 12  1  0
 13  3  1  0
  3 14  1  1
 15 14  1  0
 16  2  1  0
 17 16  1  0
 18 17  1  0
 19 18  2  0
 20 19  1  0
 21 20  2  0
 22 21  1  0
 23 22  2  0
 23 18  1  0
 24 23  1  0
 25 24  2  0
 26 25  1  0
 26 17  2  0
M  END
