
     RDKit          3D

 24 26  0  0  0  0  0  0  0  0999 V2000
   14.0250   -1.5640   21.5230 Cl  0  0  0  0  0  0  0  0  0  0  0  0
   12.7100   -0.7940   22.3580 C   0  0  0  0  0  0  0  0  0  0  0  0
   12.9420    0.2410   23.2580 C   0  0  0  0  0  0  0  0  0  0  0  0
   14.5490    0.8080   23.5810 Cl  0  0  0  0  0  0  0  0  0  0  0  0
   11.8770    0.8620   23.8830 C   0  0  0  0  0  0  0  0  0  0  0  0
   10.5850    0.4570   23.6080 C   0  0  0  0  0  0  0  0  0  0  0  0
   11.4190   -1.2050   22.0800 C   0  0  0  0  0  0  0  0  0  0  0  0
   10.3460   -0.5690   22.6990 C   0  0  0  0  0  0  0  0  0  0  0  0
    8.9360   -0.9860   22.3730 C   0  0  1  0  0  0  0  0  0  0  0  0
    8.9260   -2.2880   21.9670 F   0  0  0  0  0  0  0  0  0  0  0  0
    8.1720   -0.9470   23.5020 F   0  0  0  0  0  0  0  0  0  0  0  0
    8.3130   -0.0670   21.2890 C   0  0  0  0  0  0  0  0  0  0  0  0
    8.6130    1.1180   21.1740 O   0  0  0  0  0  0  0  0  0  0  0  0
    7.5050   -0.6810   20.4090 N   0  0  0  0  0  0  0  0  0  0  0  0
    6.4640   -0.2420   19.5790 C   0  0  0  0  0  0  0  0  0  0  0  0
    5.4400    0.6520   20.0390 C   0  0  0  0  0  0  0  0  0  0  0  0
    5.0360    0.7630   21.3950 C   0  0  0  0  0  0  0  0  0  0  0  0
    3.9700    1.5450   21.7530 C   0  0  0  0  0  0  0  0  0  0  0  0
    3.2650    2.2620   20.7980 C   0  0  0  0  0  0  0  0  0  0  0  0
    3.6180    2.1980   19.4810 C   0  0  0  0  0  0  0  0  0  0  0  0
    4.7050    1.3860   19.0650 C   0  0  0  0  0  0  0  0  0  0  0  0
    5.0560    1.2080   17.7090 C   0  0  0  0  0  0  0  0  0  0  0  0
    5.9930    0.3780   17.2840 N   0  0  0  0  0  0  0  0  0  0  0  0
    6.6460   -0.3360   18.2030 C   0  0  0  0  0  0  0  0  0  0  0  0
  2  1  1  0
  3  2  2  0
  4  3  1  0
  5  3  1  0
  6  5  2  0
  7  2  1  0
  8  6  1  0
  8  7  2  0
  9  8  1  0
  9 10  1  6
 11  9  1  0
 12  9  1  0
 13 12  2  0
 14 12  1  0
 15 14  1  0
 16 15  1  0
 17 16  2  0
 18 17  1  0
 19 18  2  0
 20 19  1  0
 21 20  2  0
 21 16  1  0
 22 21  1  0
 23 22  2  0
 24 23  1  0
 24 15  2  0
M  END
