
     RDKit          3D

 30 33  0  0  0  0  0  0  0  0999 V2000
    9.5140    0.9590   21.1890 O   0  0  0  0  0  0  0  0  0  0  0  0
    9.1260   -0.0550   21.7600 C   0  0  0  0  0  0  0  0  0  0  0  0
    8.1280   -1.0000   21.0920 C   0  0  0  0  0  0  0  0  0  0  0  0
    7.3900   -0.3340   20.0430 N   0  0  0  0  0  0  0  0  0  0  0  0
    6.2340    0.3830   20.1170 C   0  0  0  0  0  0  0  0  0  0  0  0
    5.4260    0.7940   21.1680 C   0  0  0  0  0  0  0  0  0  0  0  0
    4.3280    1.5910   20.8630 C   0  0  0  0  0  0  0  0  0  0  0  0
    4.0470    1.9490   19.5460 C   0  0  0  0  0  0  0  0  0  0  0  0
    4.8600    1.5240   18.5010 C   0  0  0  0  0  0  0  0  0  0  0  0
    5.9650    0.7320   18.7980 C   0  0  0  0  0  0  0  0  0  0  0  0
    6.9570    0.2170   17.9960 N   0  0  0  0  0  0  0  0  0  0  0  0
    7.8090   -0.4120   18.7570 N   0  0  0  0  0  0  0  0  0  0  0  0
    9.5510   -0.4030   23.0100 N   0  0  0  0  0  0  0  0  0  0  0  0
   10.5990    0.4000   23.6290 C   0  0  0  0  0  0  0  0  0  0  0  0
   11.8630   -0.3880   23.8410 C   0  0  0  0  0  0  0  0  0  0  0  0
   12.5930   -0.8450   22.7840 C   0  0  0  0  0  0  0  0  0  0  0  0
   13.8600   -1.8600   23.2780 S   0  0  0  0  0  0  0  0  0  0  0  0
   13.4600   -1.6990   24.9470 C   0  0  0  0  0  0  0  0  0  0  0  0
   12.3710   -0.8700   25.0840 C   0  0  0  0  0  0  0  0  0  0  0  0
    9.0500   -1.5280   23.7340 C   0  0  0  0  0  0  0  0  0  0  0  0
    9.6720   -2.7700   23.6270 C   0  0  0  0  0  0  0  0  0  0  0  0
    9.2770   -3.8190   24.4370 C   0  0  0  0  0  0  0  0  0  0  0  0
    7.9970   -1.3660   24.6370 C   0  0  0  0  0  0  0  0  0  0  0  0
    7.6020   -2.4190   25.4430 C   0  0  0  0  0  0  0  0  0  0  0  0
    8.2530   -3.6470   25.3640 C   0  0  0  0  0  0  0  0  0  0  0  0
    8.0080   -4.6780   26.3000 N   0  0  0  0  0  0  0  0  0  0  0  0
    6.8770   -4.8900   27.0470 C   0  0  0  0  0  0  0  0  0  0  0  0
    5.7820   -4.3920   26.7940 O   0  0  0  0  0  0  0  0  0  0  0  0
    7.0660   -5.7070   28.0960 N   0  0  0  0  0  0  0  0  0  0  0  0
    5.9950   -6.0420   29.0190 C   0  0  0  0  0  0  0  0  0  0  0  0
  2  1  2  0
  3  2  1  0
  4  3  1  0
  5  4  1  0
  6  5  2  0
  7  6  1  0
  8  7  2  0
  9  8  1  0
 10  9  2  0
 10  5  1  0
 11 10  1  0
 12 11  2  0
 12  4  1  0
 13  2  1  0
 14 13  1  0
 15 14  1  0
 16 15  2  0
 17 16  1  0
 18 17  1  0
 19 18  2  0
 19 15  1  0
 20 13  1  0
 21 20  2  0
 22 21  1  0
 23 20  1  0
 24 23  2  0
 25 24  1  0
 25 22  2  0
 26 25  1  0
 27 26  1  0
 28 27  2  0
 29 27  1  0
 30 29  1  0
M  END
