
     RDKit          3D

 29 32  0  0  0  0  0  0  0  0999 V2000
   14.0140   -1.4350   21.3640 Cl  0  0  0  0  0  0  0  0  0  0  0  0
   12.7390   -0.7530   22.3420 C   0  0  0  0  0  0  0  0  0  0  0  0
   11.4420   -1.1950   22.1610 C   0  0  0  0  0  0  0  0  0  0  0  0
   13.0430    0.2410   23.2490 C   0  0  0  0  0  0  0  0  0  0  0  0
   12.0270    0.7880   24.0110 C   0  0  0  0  0  0  0  0  0  0  0  0
   10.7040    0.3740   23.8490 C   0  0  0  0  0  0  0  0  0  0  0  0
    9.6200    0.9870   24.7110 C   0  0  0  0  0  0  0  0  0  0  0  0
    8.2760    0.7780   24.1490 N   0  0  0  0  0  0  0  0  0  0  0  0
    7.2100    1.3260   24.9820 C   0  0  0  0  0  0  0  0  0  0  0  0
    6.7300    2.7080   24.5640 C   0  0  0  0  0  0  0  0  0  0  0  0
    5.9640    3.3350   25.2920 O   0  0  0  0  0  0  0  0  0  0  0  0
    7.1500    3.1810   23.3920 N   0  0  0  0  0  0  0  0  0  0  0  0
    6.5950    4.3790   22.7870 C   0  0  0  0  0  0  0  0  0  0  0  0
   10.4060   -0.6110   22.8900 C   0  0  1  0  0  0  0  0  0  0  0  0
    8.9560   -0.9460   22.5800 C   0  0  1  0  0  0  0  0  0  0  0  0
    8.0770   -0.6270   23.7890 C   0  0  0  0  0  0  0  0  0  0  0  0
    8.4620   -0.0500   21.4420 C   0  0  2  0  0  0  0  0  0  0  0  0
    8.6890    1.1630   21.4190 O   0  0  0  0  0  0  0  0  0  0  0  0
    7.6940   -0.6790   20.5220 N   0  0  0  0  0  0  0  0  0  0  0  0
    6.7130   -0.1890   19.6230 C   0  0  1  0  0  0  0  0  0  0  0  0
    5.7280    0.7750   20.0320 C   0  0  2  0  0  0  0  0  0  0  0  0
    5.3140    0.9520   21.3770 C   0  0  0  0  0  0  0  0  0  0  0  0
    4.2460    1.7470   21.6880 C   0  0  0  0  0  0  0  0  0  0  0  0
    3.5520    2.4250   20.6950 C   0  0  0  0  0  0  0  0  0  0  0  0
    3.9180    2.3030   19.3870 C   0  0  0  0  0  0  0  0  0  0  0  0
    5.0000    1.4630   19.0150 C   0  0  2  0  0  0  0  0  0  0  0  0
    5.2980    1.1580   17.6670 C   0  0  0  0  0  0  0  0  0  0  0  0
    6.1890    0.2570   17.2900 N   0  0  0  0  0  0  0  0  0  0  0  0
    6.8560   -0.3930   18.2510 C   0  0  0  0  0  0  0  0  0  0  0  0
  2  1  1  0
  3  2  1  0
  4  2  1  0
  5  4  1  0
  6  5  1  0
  7  6  1  0
  8  7  1  0
  9  8  1  0
 10  9  1  0
 11 10  1  0
 12 10  1  0
 13 12  1  0
 14  6  1  0
 14  3  1  6
 15 14  1  0
 15 16  1  1
 16  8  1  0
 17 15  1  0
 17 18  1  1
 19 17  1  0
 20 19  1  6
 21 20  1  0
 21 22  1  1
 23 22  1  0
 24 23  1  0
 25 24  1  0
 26 25  1  1
 26 21  1  0
 27 26  1  0
 28 27  1  0
 29 28  1  0
 29 20  1  0
M  END
$$$$
