
     RDKit          3D

 23 26  0  0  0  0  0  0  0  0999 V2000
    9.1620    1.2690   21.1180 O   0  0  0  0  0  0  0  0  0  0  0  0
    8.6900    0.2640   21.6230 C   0  0  0  0  0  0  0  0  0  0  0  0
    9.1800   -0.4420   22.8820 C   0  0  2  0  0  0  0  0  0  0  0  0
   10.6790   -0.2970   23.0990 C   0  0  0  0  0  0  0  0  0  0  0  0
   11.1800    0.4560   24.1560 C   0  0  0  0  0  0  0  0  0  0  0  0
   12.5460    0.6520   24.3020 C   0  0  0  0  0  0  0  0  0  0  0  0
   13.4330    0.0920   23.3950 C   0  0  0  0  0  0  0  0  0  0  0  0
   11.5710   -0.8780   22.2040 C   0  0  0  0  0  0  0  0  0  0  0  0
   12.9280   -0.6710   22.3610 C   0  0  0  0  0  0  0  0  0  0  0  0
   14.0240   -1.3680   21.2010 Cl  0  0  0  0  0  0  0  0  0  0  0  0
    7.6130   -0.4400   21.1540 N   0  0  0  0  0  0  0  0  0  0  0  0
    7.3760   -1.6920   21.8990 C   0  0  0  0  0  0  0  0  0  0  0  0
    8.6870   -1.8970   22.6480 C   0  0  0  0  0  0  0  0  0  0  0  0
    6.7580   -0.0260   20.0790 C   0  0  0  0  0  0  0  0  0  0  0  0
    5.6030    0.7780   20.3310 C   0  0  0  0  0  0  0  0  0  0  0  0
    5.1420    1.1220   21.6310 C   0  0  0  0  0  0  0  0  0  0  0  0
    4.0630    1.9420   21.8000 C   0  0  0  0  0  0  0  0  0  0  0  0
    3.3860    2.4590   20.7010 C   0  0  0  0  0  0  0  0  0  0  0  0
    3.7790    2.1440   19.4290 C   0  0  0  0  0  0  0  0  0  0  0  0
    4.8940    1.2940   19.2090 C   0  0  0  0  0  0  0  0  0  0  0  0
    5.3640    0.9530   17.9130 C   0  0  0  0  0  0  0  0  0  0  0  0
    6.4220    0.1850   17.6850 N   0  0  0  0  0  0  0  0  0  0  0  0
    7.0830   -0.2840   18.7510 C   0  0  0  0  0  0  0  0  0  0  0  0
  2  1  2  0
  3  2  1  0
  3  4  1  6
  5  4  2  0
  6  5  1  0
  7  6  2  0
  8  4  1  0
  9  8  2  0
  9  7  1  0
 10  9  1  0
 11  2  1  0
 12 11  1  0
 13 12  1  0
 13  3  1  0
 14 11  1  0
 15 14  1  0
 16 15  2  0
 17 16  1  0
 18 17  2  0
 19 18  1  0
 20 19  2  0
 20 15  1  0
 21 20  1  0
 22 21  2  0
 23 22  1  0
 23 14  2  0
M  END
