
     RDKit          3D

 25 28  0  0  0  0  0  0  0  0999 V2000
    8.9590    0.9450   21.0990 O   0  0  0  0  0  0  0  0  0  0  0  0
    8.4810   -0.1430   21.4180 C   0  0  0  0  0  0  0  0  0  0  0  0
    9.0650   -0.9820   22.5550 C   0  0  2  0  0  0  0  0  0  0  0  0
    8.2530   -0.7070   23.8300 C   0  0  0  0  0  0  0  0  0  0  0  0
    8.5570    0.6090   24.4930 C   0  0  0  0  0  0  0  0  0  0  0  0
    7.6900    1.2770   25.0500 O   0  0  0  0  0  0  0  0  0  0  0  0
    9.8340    1.0320   24.4280 N   0  0  0  0  0  0  0  0  0  0  0  0
   10.5180   -0.6490   22.8290 C   0  0  0  0  0  0  0  0  0  0  0  0
   10.8430    0.4040   23.6980 C   0  0  0  0  0  0  0  0  0  0  0  0
   12.1770    0.7810   23.8770 C   0  0  0  0  0  0  0  0  0  0  0  0
   13.1810    0.1360   23.1750 C   0  0  0  0  0  0  0  0  0  0  0  0
   11.5410   -1.3040   22.1510 C   0  0  0  0  0  0  0  0  0  0  0  0
   12.8470   -0.8870   22.3140 C   0  0  0  0  0  0  0  0  0  0  0  0
   14.0870   -1.6080   21.3260 Cl  0  0  0  0  0  0  0  0  0  0  0  0
    7.4050   -0.6920   20.8070 N   0  0  0  0  0  0  0  0  0  0  0  0
    6.6090   -0.1210   19.7950 C   0  0  0  0  0  0  0  0  0  0  0  0
    5.4940    0.6870   20.1810 C   0  0  0  0  0  0  0  0  0  0  0  0
    5.0720    0.8580   21.5290 C   0  0  0  0  0  0  0  0  0  0  0  0
    4.0110    1.6640   21.8360 C   0  0  0  0  0  0  0  0  0  0  0  0
    3.3220    2.3370   20.8340 C   0  0  0  0  0  0  0  0  0  0  0  0
    3.6830    2.1980   19.5220 C   0  0  0  0  0  0  0  0  0  0  0  0
    4.7770    1.3710   19.1600 C   0  0  0  0  0  0  0  0  0  0  0  0
    5.2100    1.1990   17.8210 C   0  0  0  0  0  0  0  0  0  0  0  0
    6.2390    0.4460   17.4630 N   0  0  0  0  0  0  0  0  0  0  0  0
    6.9050   -0.1960   18.4340 C   0  0  0  0  0  0  0  0  0  0  0  0
  2  1  2  0
  3  2  1  6
  4  3  1  0
  5  4  1  0
  6  5  2  0
  7  5  1  0
  8  3  1  0
  9  8  2  0
  9  7  1  0
 10  9  1  0
 11 10  2  0
 12  8  1  0
 13 12  2  0
 13 11  1  0
 14 13  1  0
 15  2  1  0
 16 15  1  0
 17 16  1  0
 18 17  2  0
 19 18  1  0
 20 19  2  0
 21 20  1  0
 22 21  2  0
 22 17  1  0
 23 22  1  0
 24 23  2  0
 25 24  1  0
 25 16  2  0
M  END
