
     RDKit          3D

 26 30  0  0  0  0  0  0  0  0999 V2000
    9.2290    1.4200   21.1760 O   0  0  0  0  0  0  0  0  0  0  0  0
    8.7650    0.4040   21.6600 C   0  0  0  0  0  0  0  0  0  0  0  0
    9.3000   -0.3310   22.8900 C   0  0  1  0  0  0  0  0  0  0  0  0
   10.8000   -0.3650   22.9410 C   0  0  0  0  0  0  0  0  0  0  0  0
   11.7210   -1.0770   22.1810 C   0  0  0  0  0  0  0  0  0  0  0  0
   13.0600   -0.7590   22.3080 C   0  0  0  0  0  0  0  0  0  0  0  0
   14.2230   -1.5800   21.2970 Cl  0  0  0  0  0  0  0  0  0  0  0  0
   13.5010    0.2160   23.1910 C   0  0  0  0  0  0  0  0  0  0  0  0
   12.5800    0.8960   23.9730 C   0  0  0  0  0  0  0  0  0  0  0  0
   11.2350    0.5940   23.8400 C   0  0  0  0  0  0  0  0  0  0  0  0
   10.2100    1.1420   24.5840 O   0  0  0  0  0  0  0  0  0  0  0  0
    8.9870    0.4530   24.1860 C   0  0  0  0  0  0  0  0  0  0  0  0
    8.6930   -1.7430   22.7300 C   0  0  0  0  0  0  0  0  0  0  0  0
    7.4180   -1.5240   21.9240 C   0  0  0  0  0  0  0  0  0  0  0  0
    7.6790   -0.2760   21.1910 N   0  0  0  0  0  0  0  0  0  0  0  0
    6.8590    0.1350   20.0910 C   0  0  0  0  0  0  0  0  0  0  0  0
    7.1960   -0.1610   18.7740 C   0  0  0  0  0  0  0  0  0  0  0  0
    6.5350    0.2780   17.6940 N   0  0  0  0  0  0  0  0  0  0  0  0
    5.4700    1.0400   17.8980 C   0  0  0  0  0  0  0  0  0  0  0  0
    5.7160    0.9570   20.3150 C   0  0  0  0  0  0  0  0  0  0  0  0
    5.2900    1.3690   21.6020 C   0  0  0  0  0  0  0  0  0  0  0  0
    4.2160    2.1910   21.7050 C   0  0  0  0  0  0  0  0  0  0  0  0
    3.8580    2.6250   22.9390 F   0  0  0  0  0  0  0  0  0  0  0  0
    4.9990    1.4210   19.1780 C   0  0  0  0  0  0  0  0  0  0  0  0
    3.8780    2.2640   19.3710 C   0  0  0  0  0  0  0  0  0  0  0  0
    3.4950    2.6410   20.6230 C   0  0  0  0  0  0  0  0  0  0  0  0
  2  1  2  0
  3  2  1  0
  4  3  1  0
  5  4  2  0
  6  5  1  0
  7  6  1  0
  8  6  2  0
  9  8  1  0
 10  4  1  0
 10  9  2  0
 11 10  1  0
 12 11  1  0
  3 12  1  1
 13  3  1  0
 14 13  1  0
 15  2  1  0
 15 14  1  0
 16 15  1  0
 17 16  2  0
 18 17  1  0
 19 18  2  0
 20 16  1  0
 21 20  2  0
 22 21  1  0
 23 22  1  0
 24 20  1  0
 24 19  1  0
 25 24  2  0
 26 25  1  0
 26 22  2  0
M  END
