
     RDKit          3D

 35 39  0  0  0  0  0  0  0  0999 V2000
    7.4350    7.9690   23.2260 O   0  0  0  0  0  0  0  0  0  0  0  0
    8.2770    6.8680   22.8470 S   0  0  1  0  0  0  0  0  0  0  0  0
    9.5590    7.1320   22.2490 O   0  0  0  0  0  0  0  0  0  0  0  0
    8.3840    5.6150   24.1180 C   0  0  0  0  0  0  0  0  0  0  0  0
    7.3980    5.5010   22.1020 C   0  0  0  0  0  0  0  0  0  0  0  0
    7.2800    4.7390   23.4480 C   0  0  2  0  0  0  0  0  0  0  0  0
    5.9180    4.9530   24.1130 C   0  0  0  0  0  0  0  0  0  0  0  0
    7.6270    3.2560   23.2800 C   0  0  0  0  0  0  0  0  0  0  0  0
    7.6760    2.2420   24.7490 S   0  0  1  0  0  0  0  0  0  0  0  0
    8.2310    3.0120   25.8170 O   0  0  0  0  0  0  0  0  0  0  0  0
    6.3960    1.6340   24.9270 O   0  0  0  0  0  0  0  0  0  0  0  0
    8.7330    1.0460   24.4180 N   0  0  0  0  0  0  0  0  0  0  0  0
   10.0980    1.1220   24.9540 C   0  0  0  0  0  0  0  0  0  0  0  0
   11.0590    0.4070   24.0320 C   0  0  0  0  0  0  0  0  0  0  0  0
   12.4270    0.5930   24.2250 C   0  0  0  0  0  0  0  0  0  0  0  0
   13.3570   -0.0170   23.4040 C   0  0  0  0  0  0  0  0  0  0  0  0
   12.9170   -0.8230   22.3840 C   0  0  0  0  0  0  0  0  0  0  0  0
   14.0810   -1.5300   21.2980 Cl  0  0  0  0  0  0  0  0  0  0  0  0
   11.5690   -1.0480   22.1690 C   0  0  0  0  0  0  0  0  0  0  0  0
   10.6220   -0.4300   22.9910 C   0  0  0  0  0  0  0  0  0  0  0  0
    9.1410   -0.6940   22.7690 C   0  0  1  0  0  0  0  0  0  0  0  0
    8.3200   -0.3040   24.0010 C   0  0  0  0  0  0  0  0  0  0  0  0
    8.6550    0.0610   21.5300 C   0  0  0  0  0  0  0  0  0  0  0  0
    9.2260    1.0620   21.1090 O   0  0  0  0  0  0  0  0  0  0  0  0
    7.5070   -0.4200   20.9920 N   0  0  0  0  0  0  0  0  0  0  0  0
    6.7250    0.1310   19.9500 C   0  0  0  0  0  0  0  0  0  0  0  0
    5.5680    0.9040   20.2960 C   0  0  0  0  0  0  0  0  0  0  0  0
    5.1370    1.1270   21.6310 C   0  0  0  0  0  0  0  0  0  0  0  0
    4.0300    1.8860   21.8940 C   0  0  0  0  0  0  0  0  0  0  0  0
    3.2990    2.4600   20.8580 C   0  0  0  0  0  0  0  0  0  0  0  0
    3.6720    2.2730   19.5590 C   0  0  0  0  0  0  0  0  0  0  0  0
    4.8090    1.4840   19.2400 C   0  0  0  0  0  0  0  0  0  0  0  0
    5.2360    1.2430   17.9100 C   0  0  0  0  0  0  0  0  0  0  0  0
    6.3010    0.5240   17.5900 N   0  0  0  0  0  0  0  0  0  0  0  0
    7.0140   -0.0080   18.5920 C   0  0  0  0  0  0  0  0  0  0  0  0
  2  1  2  0
  3  2  2  0
  2  4  1  1
  5  2  1  0
  6  5  1  0
  6  4  1  0
  6  7  1  1
  8  6  1  0
  9  8  1  6
 10  9  2  0
 11  9  2  0
 12  9  1  0
 13 12  1  0
 14 13  1  0
 15 14  2  0
 16 15  1  0
 17 16  2  0
 18 17  1  0
 19 17  1  0
 20 19  2  0
 20 14  1  0
 21 20  1  0
 22 21  1  0
 22 12  1  0
 21 23  1  6
 24 23  2  0
 25 23  1  0
 26 25  1  0
 27 26  1  0
 28 27  2  0
 29 28  1  0
 30 29  2  0
 31 30  1  0
 32 31  2  0
 32 27  1  0
 33 32  1  0
 34 33  2  0
 35 34  1  0
 35 26  2  0
M  END
