
     RDKit          3D

 27 30  0  0  0  0  0  0  0  0999 V2000
    9.0520    1.0090   21.0920 O   0  0  0  0  0  0  0  0  0  0  0  0
    8.5110    0.0230   21.5680 C   0  0  0  0  0  0  0  0  0  0  0  0
    9.1000   -0.6730   22.8210 C   0  0  1  0  0  0  0  0  0  0  0  0
   10.5710   -0.3890   23.0330 C   0  0  0  0  0  0  0  0  0  0  0  0
   11.5360   -0.9520   22.2000 C   0  0  0  0  0  0  0  0  0  0  0  0
   12.8480   -0.5210   22.2620 C   0  0  0  0  0  0  0  0  0  0  0  0
   14.0230   -1.2410   21.2090 Cl  0  0  0  0  0  0  0  0  0  0  0  0
   13.2170    0.4750   23.1500 C   0  0  0  0  0  0  0  0  0  0  0  0
   14.8720    0.9770   23.2710 Cl  0  0  0  0  0  0  0  0  0  0  0  0
   12.2790    1.0550   23.9830 C   0  0  0  0  0  0  0  0  0  0  0  0
   10.9710    0.6140   23.9200 C   0  0  0  0  0  0  0  0  0  0  0  0
   10.1080    1.2000   24.8170 O   0  0  0  0  0  0  0  0  0  0  0  0
    8.7180    1.2010   24.4320 C   0  0  0  0  0  0  0  0  0  0  0  0
    8.2430   -0.1660   23.9890 C   0  0  0  0  0  0  0  0  0  0  0  0
    8.9090   -2.0520   22.5320 O   0  0  0  0  0  0  0  0  0  0  0  0
    9.1440   -2.9770   23.6030 C   0  0  0  0  0  0  0  0  0  0  0  0
    7.3700   -0.5150   21.0910 N   0  0  0  0  0  0  0  0  0  0  0  0
    6.6470   -0.0300   19.9780 C   0  0  0  0  0  0  0  0  0  0  0  0
    5.5290    0.8220   20.2210 C   0  0  0  0  0  0  0  0  0  0  0  0
    5.0670    1.1630   21.5190 C   0  0  0  0  0  0  0  0  0  0  0  0
    3.9920    1.9890   21.6870 C   0  0  0  0  0  0  0  0  0  0  0  0
    3.3220    2.5120   20.5880 C   0  0  0  0  0  0  0  0  0  0  0  0
    3.7220    2.2050   19.3180 C   0  0  0  0  0  0  0  0  0  0  0  0
    4.8370    1.3580   19.0980 C   0  0  0  0  0  0  0  0  0  0  0  0
    5.3070    1.0140   17.8070 C   0  0  0  0  0  0  0  0  0  0  0  0
    6.3440    0.2160   17.5820 N   0  0  0  0  0  0  0  0  0  0  0  0
    6.9880   -0.2810   18.6500 C   0  0  0  0  0  0  0  0  0  0  0  0
  2  1  2  0
  3  2  1  0
  4  3  1  0
  5  4  2  0
  6  5  1  0
  7  6  1  0
  8  6  2  0
  9  8  1  0
 10  8  1  0
 11  4  1  0
 11 10  2  0
 12 11  1  0
 13 12  1  0
 14 13  1  0
 14  3  1  0
  3 15  1  6
 16 15  1  0
 17  2  1  0
 18 17  1  0
 19 18  1  0
 20 19  2  0
 21 20  1  0
 22 21  2  0
 23 22  1  0
 24 23  2  0
 24 19  1  0
 25 24  1  0
 26 25  2  0
 27 26  1  0
 27 18  2  0
M  END
