
     RDKit          3D

 30 33  0  0  0  0  0  0  0  0999 V2000
   12.9840    6.6030   22.1610 O   0  0  0  0  0  0  0  0  0  0  0  0
   12.9510    5.4210   22.4740 C   0  0  0  0  0  0  0  0  0  0  0  0
   12.2610    4.1760   21.9420 C   0  0  0  0  0  0  0  0  0  0  0  0
   13.5810    4.7300   23.4410 N   0  0  0  0  0  0  0  0  0  0  0  0
   13.2330    3.4190   22.8530 C   0  0  1  0  0  0  0  0  0  0  0  0
   12.4480    2.5970   23.7400 O   0  0  0  0  0  0  0  0  0  0  0  0
   12.2680    1.2970   23.3140 C   0  0  0  0  0  0  0  0  0  0  0  0
   13.3370    0.4780   22.9800 C   0  0  0  0  0  0  0  0  0  0  0  0
   13.0680   -0.8100   22.5600 C   0  0  0  0  0  0  0  0  0  0  0  0
   14.3880   -1.8250   22.0590 Cl  0  0  0  0  0  0  0  0  0  0  0  0
   10.9610    0.8430   23.2380 C   0  0  0  0  0  0  0  0  0  0  0  0
   10.7340   -0.4620   22.8320 C   0  0  0  0  0  0  0  0  0  0  0  0
   11.7820   -1.3060   22.4940 C   0  0  0  0  0  0  0  0  0  0  0  0
    9.4130   -0.8320   22.7930 O   0  0  0  0  0  0  0  0  0  0  0  0
    9.0810   -2.1720   22.3890 C   0  0  0  0  0  0  0  0  0  0  0  0
    7.5880   -2.2540   22.3480 C   0  0  0  0  0  0  0  0  0  0  0  0
    7.0480   -1.2630   21.4300 N   0  0  0  0  0  0  0  0  0  0  0  0
    5.8530   -1.4060   20.8580 C   0  0  0  0  0  0  0  0  0  0  0  0
    5.1390   -2.3890   21.0470 O   0  0  0  0  0  0  0  0  0  0  0  0
    5.4200   -0.2930   19.9930 C   0  0  0  0  0  0  0  0  0  0  0  0
    4.3780    0.6360   20.4180 C   0  0  0  0  0  0  0  0  0  0  0  0
    3.8200    0.6230   21.6980 C   0  0  0  0  0  0  0  0  0  0  0  0
    2.8440    1.5460   22.0380 C   0  0  0  0  0  0  0  0  0  0  0  0
    2.4180    2.4880   21.1180 C   0  0  0  0  0  0  0  0  0  0  0  0
    2.9670    2.5250   19.8440 C   0  0  0  0  0  0  0  0  0  0  0  0
    3.9530    1.6060   19.4900 C   0  0  0  0  0  0  0  0  0  0  0  0
    4.5590    1.6630   18.2390 N   0  0  0  0  0  0  0  0  0  0  0  0
    5.5780    0.8400   17.8310 C   0  0  0  0  0  0  0  0  0  0  0  0
    6.1340    1.0310   16.7530 O   0  0  0  0  0  0  0  0  0  0  0  0
    5.9780   -0.1620   18.7580 C   0  0  0  0  0  0  0  0  0  0  0  0
  2  1  2  0
  3  2  1  0
  4  2  1  0
  5  4  1  0
  5  3  1  0
  5  6  1  1
  7  6  1  0
  8  7  2  0
  9  8  1  0
 10  9  1  0
 11  7  1  0
 12 11  2  0
 13 12  1  0
 13  9  2  0
 14 12  1  0
 15 14  1  0
 16 15  1  0
 17 16  1  0
 18 17  1  0
 19 18  2  0
 20 18  1  0
 21 20  1  0
 22 21  2  0
 23 22  1  0
 24 23  2  0
 25 24  1  0
 26 25  2  0
 26 21  1  0
 27 26  1  0
 28 27  1  0
 29 28  2  0
 30 20  2  0
 30 28  1  0
M  END
