
     RDKit          3D

 24 27  0  0  0  0  0  0  0  0999 V2000
   14.0290   -1.5760   21.1860 Cl  0  0  0  0  0  0  0  0  0  0  0  0
   12.9870   -0.8530   22.3820 C   0  0  0  0  0  0  0  0  0  0  0  0
   13.5520   -0.1740   23.4440 C   0  0  0  0  0  0  0  0  0  0  0  0
   12.7140    0.4150   24.3780 C   0  0  0  0  0  0  0  0  0  0  0  0
   11.3380    0.3450   24.2260 C   0  0  0  0  0  0  0  0  0  0  0  0
   11.6160   -0.9460   22.2230 C   0  0  0  0  0  0  0  0  0  0  0  0
   10.7760   -0.3270   23.1450 C   0  0  0  0  0  0  0  0  0  0  0  0
    9.2600   -0.3640   22.9500 C   0  0  1  0  0  0  0  0  0  0  0  0
    8.5610    0.2270   24.0430 O   0  0  0  0  0  0  0  0  0  0  0  0
    8.8240    0.3850   21.6760 C   0  0  0  0  0  0  0  0  0  0  0  0
    9.3170    1.4110   21.2450 O   0  0  0  0  0  0  0  0  0  0  0  0
    7.7530   -0.2760   21.1500 N   0  0  0  0  0  0  0  0  0  0  0  0
    7.4830   -1.5640   21.8180 C   0  0  0  0  0  0  0  0  0  0  0  0
    8.7130   -1.7880   22.6930 C   0  0  0  0  0  0  0  0  0  0  0  0
    6.9050    0.2220   20.1080 C   0  0  0  0  0  0  0  0  0  0  0  0
    5.7870    1.0550   20.4210 C   0  0  0  0  0  0  0  0  0  0  0  0
    5.4280    1.4400   21.7400 C   0  0  0  0  0  0  0  0  0  0  0  0
    4.3490    2.2460   21.9680 C   0  0  0  0  0  0  0  0  0  0  0  0
    3.5750    2.7110   20.9110 C   0  0  0  0  0  0  0  0  0  0  0  0
    3.8770    2.3680   19.6230 C   0  0  0  0  0  0  0  0  0  0  0  0
    4.9900    1.5340   19.3410 C   0  0  0  0  0  0  0  0  0  0  0  0
    5.3620    1.1560   18.0260 C   0  0  0  0  0  0  0  0  0  0  0  0
    6.4050    0.3860   17.7400 N   0  0  0  0  0  0  0  0  0  0  0  0
    7.1400   -0.0630   18.7660 C   0  0  0  0  0  0  0  0  0  0  0  0
  2  1  1  0
  3  2  2  0
  4  3  1  0
  5  4  2  0
  6  2  1  0
  7  6  2  0
  7  5  1  0
  8  7  1  0
  8  9  1  1
 10  8  1  0
 11 10  2  0
 12 10  1  0
 13 12  1  0
 14 13  1  0
 14  8  1  0
 15 12  1  0
 16 15  1  0
 17 16  2  0
 18 17  1  0
 19 18  2  0
 20 19  1  0
 21 20  2  0
 21 16  1  0
 22 21  1  0
 23 22  2  0
 24 23  1  0
 24 15  2  0
M  END
