
     RDKit          3D

 30 33  0  0  0  0  0  0  0  0999 V2000
    9.3720    1.1970   21.0810 O   0  0  0  0  0  0  0  0  0  0  0  0
    8.8310    0.2160   21.5750 C   0  0  0  0  0  0  0  0  0  0  0  0
    9.3770   -0.4330   22.8710 C   0  0  1  0  0  0  0  0  0  0  0  0
   10.8780   -0.1450   22.8410 C   0  0  0  0  0  0  0  0  0  0  0  0
   11.7550   -0.9380   22.1070 C   0  0  0  0  0  0  0  0  0  0  0  0
   13.1000   -0.6260   22.0980 C   0  0  0  0  0  0  0  0  0  0  0  0
   14.1580   -1.5090   21.0300 Cl  0  0  0  0  0  0  0  0  0  0  0  0
   13.6110    0.4280   22.8300 C   0  0  0  0  0  0  0  0  0  0  0  0
   12.7500    1.2180   23.5670 C   0  0  0  0  0  0  0  0  0  0  0  0
   11.3950    0.9290   23.5600 C   0  0  0  0  0  0  0  0  0  0  0  0
   10.6000    1.7450   24.3210 O   0  0  0  0  0  0  0  0  0  0  0  0
    9.5390    1.0270   24.9660 C   0  0  0  0  0  0  0  0  0  0  0  0
    8.6140    0.3390   23.9790 C   0  0  0  0  0  0  0  0  0  0  0  0
    9.1360   -1.9690   22.9210 C   0  0  0  0  0  0  0  0  0  0  0  0
    9.4690   -2.6650   24.2280 C   0  0  0  0  0  0  0  0  0  0  0  0
   10.1660   -2.1250   25.0770 O   0  0  0  0  0  0  0  0  0  0  0  0
    9.0290   -3.9270   24.3900 N   0  0  0  0  0  0  0  0  0  0  0  0
    7.7320   -4.4220   23.9240 C   0  0  0  0  0  0  0  0  0  0  0  0
    9.8450   -4.9160   25.1000 C   0  0  0  0  0  0  0  0  0  0  0  0
    7.7110   -0.3350   21.0640 N   0  0  0  0  0  0  0  0  0  0  0  0
    6.9470    0.1240   19.9700 C   0  0  0  0  0  0  0  0  0  0  0  0
    5.7990    0.9300   20.2420 C   0  0  0  0  0  0  0  0  0  0  0  0
    5.3980    1.3160   21.5480 C   0  0  0  0  0  0  0  0  0  0  0  0
    4.3000    2.1070   21.7400 C   0  0  0  0  0  0  0  0  0  0  0  0
    3.5500    2.5500   20.6580 C   0  0  0  0  0  0  0  0  0  0  0  0
    3.9010    2.2140   19.3820 C   0  0  0  0  0  0  0  0  0  0  0  0
    5.0330    1.3980   19.1370 C   0  0  0  0  0  0  0  0  0  0  0  0
    5.4600    1.0360   17.8380 C   0  0  0  0  0  0  0  0  0  0  0  0
    6.5320    0.3010   17.5840 N   0  0  0  0  0  0  0  0  0  0  0  0
    7.2430   -0.1370   18.6320 C   0  0  0  0  0  0  0  0  0  0  0  0
  2  1  2  0
  3  2  1  0
  4  3  1  0
  5  4  2  0
  6  5  1  0
  7  6  1  0
  8  6  2  0
  9  8  1  0
 10  4  1  0
 10  9  2  0
 11 10  1  0
 12 11  1  0
 13 12  1  0
 13  3  1  0
  3 14  1  6
 15 14  1  0
 16 15  2  0
 17 15  1  0
 18 17  1  0
 19 17  1  0
 20  2  1  0
 21 20  1  0
 22 21  1  0
 23 22  2  0
 24 23  1  0
 25 24  2  0
 26 25  1  0
 27 26  2  0
 27 22  1  0
 28 27  1  0
 29 28  2  0
 30 29  1  0
 30 21  2  0
M  END
