
     RDKit          3D

 24 27  0  0  0  0  0  0  0  0999 V2000
    9.3820    1.0790   21.0210 O   0  0  0  0  0  0  0  0  0  0  0  0
    8.8160    0.1300   21.5630 C   0  0  0  0  0  0  0  0  0  0  0  0
    9.4150   -0.5980   22.7680 C   0  0  1  0  0  0  0  0  0  0  0  0
   10.9060   -0.3300   22.8120 C   0  0  0  0  0  0  0  0  0  0  0  0
   11.7850   -1.0250   21.9840 C   0  0  0  0  0  0  0  0  0  0  0  0
    8.7570   -0.1490   24.0860 C   0  0  0  0  0  0  0  0  0  0  0  0
    9.2390    1.2280   24.4560 C   0  0  0  0  0  0  0  0  0  0  0  0
   10.6790    1.2930   24.6240 O   0  0  0  0  0  0  0  0  0  0  0  0
   11.4430    0.5980   23.7160 C   0  0  0  0  0  0  0  0  0  0  0  0
   12.8090    0.8360   23.7800 C   0  0  0  0  0  0  0  0  0  0  0  0
   13.6640    0.1410   22.9430 C   0  0  0  0  0  0  0  0  0  0  0  0
   13.1410   -0.7830   22.0610 C   0  0  0  0  0  0  0  0  0  0  0  0
   14.2140   -1.6470   20.9940 Cl  0  0  0  0  0  0  0  0  0  0  0  0
    7.5630   -0.2410   21.2480 N   0  0  0  0  0  0  0  0  0  0  0  0
    6.8270    0.0140   20.0840 C   0  0  0  0  0  0  0  0  0  0  0  0
    7.2980   -0.0830   18.7750 C   0  0  0  0  0  0  0  0  0  0  0  0
    6.6980    0.4160   17.6850 N   0  0  0  0  0  0  0  0  0  0  0  0
    5.5770    1.0880   17.8650 C   0  0  0  0  0  0  0  0  0  0  0  0
    4.9930    1.3280   19.1300 C   0  0  0  0  0  0  0  0  0  0  0  0
    5.6220    0.7590   20.2720 C   0  0  0  0  0  0  0  0  0  0  0  0
    3.8860    2.1810   19.3560 C   0  0  0  0  0  0  0  0  0  0  0  0
    3.4210    2.4900   20.5640 N   0  0  0  0  0  0  0  0  0  0  0  0
    4.0280    1.9380   21.6250 C   0  0  0  0  0  0  0  0  0  0  0  0
    5.0900    1.0870   21.5450 C   0  0  0  0  0  0  0  0  0  0  0  0
  2  1  2  0
  3  2  1  6
  4  3  1  0
  5  4  2  0
  6  3  1  0
  7  6  1  0
  8  7  1  0
  9  8  1  0
  9  4  1  0
 10  9  2  0
 11 10  1  0
 12 11  2  0
 12  5  1  0
 13 12  1  0
 14  2  1  0
 15 14  1  0
 16 15  2  0
 17 16  1  0
 18 17  2  0
 19 18  1  0
 20 19  2  0
 20 15  1  0
 21 19  1  0
 22 21  2  0
 23 22  1  0
 24 23  2  0
 24 20  1  0
M  END
