
     RDKit          3D

 28 32  0  0  0  0  0  0  0  0999 V2000
   14.0480   -1.6960   20.8410 Cl  0  0  0  0  0  0  0  0  0  0  0  0
   13.1270   -0.7680   21.9960 C   0  0  0  0  0  0  0  0  0  0  0  0
   13.7770    0.1700   22.7720 C   0  0  0  0  0  0  0  0  0  0  0  0
   13.0360    1.0200   23.5700 C   0  0  0  0  0  0  0  0  0  0  0  0
   11.7500   -0.9140   22.0240 C   0  0  0  0  0  0  0  0  0  0  0  0
   10.9840   -0.0460   22.8030 C   0  0  0  0  0  0  0  0  0  0  0  0
   11.6550    0.9160   23.5780 C   0  0  0  0  0  0  0  0  0  0  0  0
   11.0100    1.7970   24.4130 O   0  0  0  0  0  0  0  0  0  0  0  0
    9.5820    1.9270   24.2440 C   0  0  0  0  0  0  0  0  0  0  0  0
    8.9060    0.5900   24.0270 C   0  0  0  0  0  0  0  0  0  0  0  0
    9.4500   -0.0920   22.7590 C   0  0  2  0  0  0  0  0  0  0  0  0
    8.8140   -1.4100   22.5910 N   0  0  0  0  0  0  0  0  0  0  0  0
    9.0740   -2.5500   23.4680 C   0  0  0  0  0  0  0  0  0  0  0  0
    8.8380    0.6570   21.5400 C   0  0  0  0  0  0  0  0  0  0  0  0
    9.1380    1.7640   21.1350 O   0  0  0  0  0  0  0  0  0  0  0  0
    7.8940   -0.2060   20.9630 N   0  0  0  0  0  0  0  0  0  0  0  0
    7.8930   -1.4550   21.5860 C   0  0  0  0  0  0  0  0  0  0  0  0
    7.1920   -2.4070   21.3010 O   0  0  0  0  0  0  0  0  0  0  0  0
    7.0010    0.1790   19.8920 C   0  0  0  0  0  0  0  0  0  0  0  0
    5.8490    0.9690   20.1890 C   0  0  0  0  0  0  0  0  0  0  0  0
    5.4100    1.2990   21.4990 C   0  0  0  0  0  0  0  0  0  0  0  0
    4.2980    2.0670   21.6960 C   0  0  0  0  0  0  0  0  0  0  0  0
    3.5680    2.5490   20.6150 C   0  0  0  0  0  0  0  0  0  0  0  0
    3.9470    2.2610   19.3350 C   0  0  0  0  0  0  0  0  0  0  0  0
    5.0920    1.4620   19.0870 C   0  0  0  0  0  0  0  0  0  0  0  0
    5.5300    1.1250   17.7810 C   0  0  0  0  0  0  0  0  0  0  0  0
    6.6030    0.3880   17.5190 N   0  0  0  0  0  0  0  0  0  0  0  0
    7.3140   -0.0660   18.5600 C   0  0  0  0  0  0  0  0  0  0  0  0
  2  1  1  0
  3  2  2  0
  4  3  1  0
  5  2  1  0
  6  5  2  0
  7  6  1  0
  7  4  2  0
  8  7  1  0
  9  8  1  0
 10  9  1  0
 11 10  1  1
 11  6  1  0
 12 11  1  0
 13 12  1  0
 14 11  1  0
 15 14  2  0
 16 14  1  0
 17 16  1  0
 17 12  1  0
 18 17  2  0
 19 16  1  0
 20 19  1  0
 21 20  2  0
 22 21  1  0
 23 22  2  0
 24 23  1  0
 25 24  2  0
 25 20  1  0
 26 25  1  0
 27 26  2  0
 28 27  1  0
 28 19  2  0
M  END
